          72

 O      28.207849805259738       -22.235954963408716        254.15531630556035     
 H      27.354878972997454       -22.656648811047670        254.04719930472680     
 H      28.758719749999788       -22.633522574852510        253.48099135547167     
 M      28.169177246849898       -22.340702302388650        254.05515429578381     
 O      26.971520976177835       -26.148650729426258        253.71543254522939     
 H      26.405598728786902       -25.405379114489371        253.50683926552605     
 H      27.270559249525991       -25.979304875680594        254.60881372529303     
 M      26.937356607581226       -26.031824682824535        253.80309365835146     
 O      31.380846149228795       -26.231304793925677        254.83264044625045     
 H      32.029724474434502       -26.557374264026741        254.20904806356251     
 H      31.511891017003293       -25.283159859053391        254.84159952573626     
 M      31.480685727601841       -26.151671629175574        254.75395996797096     
 O      24.014007111396928       -24.742941569423511        248.92518509784938     
 H      24.944952983147793       -24.520722248844198        248.93897630641024     
 H      23.584096360146823       -24.002170799172074        249.35258099382895     
 M      24.078145651744116       -24.619667219447756        248.98166237009531     
 O      29.504518798512109       -26.590923167024933        252.81560503797374     
 H      28.614057074371090       -26.451699714387850        253.13798150745680     
 H      30.030843678576019       -26.706435735674557        253.60672500808562     
 M      29.457904889207988       -26.587887887805195        252.95814601643062     
 O      27.754148999230388       -26.947377727496558        250.50426049494556     
 H      27.329287829777616       -27.789132515512566        250.66910497784821     
 H      28.199661061916597       -26.738549227867335        251.32532169835503     
 M      27.756792562714452       -27.028399928581777        250.63046831761679     
 O      30.142417914453720       -25.867652841911031        249.26365184901749     
 H      30.690657584374090       -26.497469023315084        248.79568103585828     
 H      29.534172934826394       -26.407483165931016        249.76848162827469     
 M      30.134736510854722       -26.017381706236687        249.26837024137600     
 O      29.848698962792493       -23.827740334480367        252.35493621001908     
 H      29.661981247274618       -24.763318158352721        252.43279807610782     
 H      29.505350177041279       -23.585252295083706        251.49496934898761     
 M      29.780844055447886       -23.916464188930359        252.25481733467140     
 O      26.086355905572152       -23.771481154615394        252.88307451664753     
 H      26.283164487130616       -23.899386471933656        251.95509905790544     
 H      25.141779000407059       -23.911422288694627        252.94957857081087     
 M      25.990632538423345       -23.805768731925991        252.77279578332207     
 O      25.094539898024149       -28.103639937958455        252.78349213790261     
 H      24.794309670819008       -27.465799587418736        252.13599438663533     
 H      25.796857545813758       -27.655113330533879        253.25445460353419     
 M      25.146011938991737       -27.964571860464652        252.76089349146676     
 O      31.332843764710613       -23.465595025853951        254.57118390544596     
 H      30.680287951052051       -23.244147452784727        255.23553601272249     
 H      30.874115530903509       -23.355888595378534        253.73825849064684     
 M      31.190585999138413       -23.423203318071831        254.54960448826770     
 O      23.726615293695215       -25.070817610687342        253.34562526297708     
 H      23.478594030860329       -25.430276183701832        254.19739214861471     
 H      23.509821370732094       -25.762778249354369        252.72078711633361     
 M      23.667113341979675       -25.205411955018246        253.37467487943329     
 O      28.596970779578339       -25.700936872587196        255.87833962756648     
 H      28.713589421500622       -24.939600234688040        256.44666915886722     
 H      29.474039568713902       -26.075301203223106        255.79567447728789     
 M      28.724174759462116       -25.651399748486824        255.94051052781276     
 O      26.617743839896828       -29.655214227450980        250.34069355308955     
 H      25.929801193466027       -29.574569013254731        251.00134709667367     
 H      26.934104963126416       -30.553984438473947        250.43212433284214     
 M      26.570176921845388       -29.759944097615652        250.43696942027591     
 O      23.562221017596265       -26.457369939108535        251.07151884253611     
 H      23.052891508543478       -27.128695610487906        250.61749556762896     
 H      23.732090729369546       -25.792648268432213        250.40404508158693     
 M      23.518766068008500       -26.458215330875021        250.92795369123161     
 O      26.571687237889655       -24.412439024052809        250.14134922763927     
 H      27.309971203013763       -23.933175469170770        249.76521750629217     
 H      26.907387171198458       -25.297545092770655        250.28321057506821     
 M      26.709170134363546       -24.464391762261474        250.11135979333568     
 O      29.118847158785730       -23.451117640082288        249.58392383232882     
 H      29.377438238935884       -24.342830576658397        249.35109227946103     
 H      29.909704200813408       -22.928983162801817        249.44919237086154     
 M      29.253189179879012       -23.498428141787919        249.53687133189538     
 O      29.418932700891094       -22.899057492461505        256.48395890636431     
 H      28.895345695337145       -22.716736678737977        255.70367203059476     
 H      29.611168793846019       -22.036173155330729        256.85098444403025     
 M      29.376515786374171       -22.765258622888840        256.43105646914313     
