          28

 O     -1049.3242508151145        114.69732586567989       -308.22779943106440     
 H     -1048.3687874783261        114.64005798215427       -308.23428337792615     
 H     -1049.5303785111835        115.34574769480461       -308.90106932080010     
 M     -1049.2283268124681        114.77300070291224       -308.31481612329009     
 O     -1051.1189429206090        113.01661072356703       -305.10515549768695     
 H     -1050.5790866691632        112.70080260555299       -305.82976042478265     
 H     -1051.2854329931565        112.23854123113004       -304.57306456496894     
 M     -1051.0711475450946        112.87658119194032       -305.12979961162404     
 O     -1046.7304857856279        113.91387796029014       -308.68706119662244     
 H     -1045.9883690894553        114.28337853663220       -309.16556299739949     
 H     -1046.3591210772136        113.17957446168863       -308.19806378835909     
 M     -1046.5879467318368        113.86717878494082       -308.68571763223486     
 O     -1049.8956181622229        115.55016701430864       -305.51856293711069     
 H     -1049.8401109165761        115.19150193889517       -306.40428871259758     
 H     -1050.4632964114460        114.94002361883901       -305.04771446645458     
 M     -1049.9611822299576        115.42614784148969       -305.57167223756846     
 O     -1047.4402058506782        115.39967520108740       -304.45554756340516     
 H     -1047.3608083376955        115.96294167621610       -303.68570423328435     
 H     -1048.2906926522066        115.62610026224255       -304.83189279335409     
 M     -1047.5389145827025        115.50076524525601       -304.40517505907991     
 O     -1049.4096334617730        112.17198239362685       -306.92629125419421     
 H     -1048.4766838670760        112.18230009859580       -306.71244448961886     
 H     -1049.5203999151340        112.88801012466405       -307.55180458034670     
 M     -1049.3043841001515        112.26496337269879       -306.97898954077874     
 O     -1046.8094484974506        112.55802571888846       -305.86907415929528     
 H     -1046.9799914055063        113.43405406494881       -305.52306650994240     
 H     -1046.9747827890596        111.97192658343549       -305.13057282859808     
 M     -1046.8524448313192        112.59514015580174       -305.73024392538656     
