           8

 O     -172.16040742489116        199.33686415170135        437.74228485936209     
 H     -172.39085909785774        199.45636624071639        438.66361168364796     
 H     -171.35784714812843        199.84578107395564        437.62768813861931     
 M     -172.08717062119004        199.41730936693750        437.84555604570801     
 O     -169.74564352505763        201.97543557982834        437.62873158256110     
 H     -169.22312288640313        201.99591844907653        438.43046999017810     
 H     -169.57928895423160        202.82104099418987        437.21218689112095     
 M     -169.65745918705571        202.08630532937255        437.67804102554345     
