           5

 O      58.224964285625148        13.144583863427611       -169.88856128219476     
 O      60.037945142560687        15.032838455506491       -169.95373647678974     
 O      58.528765508343341        14.866189096864716       -167.77608606147319     
 O      57.465244275852648        15.983173762968413       -170.31688581301376     
 Si     58.582401728100223        14.698005626660500       -169.42646984822494     
