         150

 O      3.5326702725402686        6.7882131199074740       -7.1920136465272835     
 O      1.7568769325359388        3.0727521762949901        2.2712685716865932     
 O     -4.3035664401027676        1.4859791024446807       -6.3367575177276727     
 O      1.7765486095661638        4.9154717213685322       -3.1396453848897403     
 O    -0.40962875783442720        4.2302028495691921       0.84080578453084764     
 O    -0.95189361772468206       -1.6881170498963278       0.46422383601626332     
 O     -5.6235302993270686        4.1614951794118005       -3.6841897699442696     
 O     -3.2264426884346014       -3.7199397095392821       -1.0259342046224784     
 O     -8.9441281701144728       0.59457041159669322      -0.58659400158218722     
 O     -2.8001755872051959       -4.2980609136824608       -3.8750612117062908     
 O     -3.4444151773610998        3.6621283515459759       -6.2519454480197503     
 O     -3.7056194704923371       -3.4338515035468813       -5.9964914412365484     
 O     -7.8535917423183896        4.2963355942927173       -1.8022673159843750     
 O     -2.2580837906460141        3.3718214886654549       -8.6276076451563881     
 O      1.5226061741106605        10.334793573870847       -1.2608591997441494     
 O     -8.4808213576438476       0.99695053195742434        2.1335642982776140     
 O     -7.0346203248411214       -1.1182286335698033        5.6782638417315940     
 O     -6.3493536487723867        2.7290205996476242       -1.7524854544803419     
 O     -4.9501423996654532       -2.1760563108969664       0.16399867047114133     
 O     -8.8815096644973455        2.7789010971233270       0.22803545298901667     
 O     -6.1986446654321918       -5.7472495310894951        4.1747552578712774     
 O     0.76172918997566852       -2.2340217274059606       -2.9827469182450805     
 O      3.1468542463132776        4.2912102535376464       -7.9698568805719781     
 O     -2.3590386981350533       -3.3367656909999650        1.5467087024510766     
 O     -3.3162508437072056        9.7248956368866804       -4.8009946157421126     
 O     -4.0304668734185363        8.2523010731030570       -6.6833693753788683     
 O      2.7529153525373209       0.74513205588663523      -0.60594286513152040     
 O     -9.3493507961915228      -0.30936663770319300        7.0221745960240494     
 O     -2.9991307420928699        4.1213733180474739       0.46178514171515384     
 O     -2.8845478169120771        1.4096361801233663       -4.1879210284237942     
 O    -0.17259530718486973        9.6573158329963604       -7.9493267212308369     
 O     -4.7944224298642375      -0.45234874539059172        1.6673112266104029     
 O    -0.29108038317684271        9.9484630552925886       -5.0180201781515352     
 O     -2.9996878031939271        5.9383755918328811       -8.0845590979510860     
 O     -4.8119819135148036      -0.13747799937106600       -4.7058049553860215     
 O     -1.5803028029200790        5.6515402969233408       -10.136714338527767     
 O     -6.6644895852740600      -0.21965135775263372      -0.13783851362653976     
 O     -4.1068811527296374        1.5171545303668239       0.33292919715397085     
 O     -9.4575304994629690       -1.6123720290210499        1.8649180130524254     
 O    -0.77203123645224148        4.1477708634368859        3.6235970527281363     
 O    -0.68806076331940080       -2.1340286461588934E-002  -3.9904786292489347     
 O     -3.9730319437255401        2.2153550784069980       -1.8338050706267295     
 O     -2.2481492688829108       0.20120554288151749       -1.9090388265188318     
 O     -9.2871800786251733      -0.32893380107621956        4.3973785563684160     
 O     -1.3323804249075433        6.5770949248836290       -8.4280662837278114E-002
 O     -6.3648054285528515        3.1464860208098937       0.44335259675291211     
 O     -5.3205171985106592       -4.0498576049841359        2.0108778617466938     
 O      3.9311573166506153        3.1031651203504471       0.62376058367592069     
 O     0.92407601034526488        11.826411406856055       -5.3102206007623014     
 O     0.58064691056789119        7.3365050870882342       -2.6573887441275583     
 O     -2.4389081626542275        10.202776605024059       -8.8002136137596665     
 O    -0.54496106564973734        10.798420814677504       -2.5842532385252301     
 O     -1.6811619374684086        5.2804483982423074       -1.5786989361356043     
 O      3.7405248979981773      -0.90903295126738259       -2.4984511214732246     
 O     -1.3574722489392892        2.4589391001696028        2.2530606130531252     
 O      2.7775485404448479        3.6941034330771108       -5.4147281369380922     
 O     -2.1356542059875632        11.119605877795957       -6.3337906505649615     
 O     -7.7965314730731752       -4.1769259402771395        2.4818851766145911     
 O     -5.8713185406159898       -3.2750957995699230        4.1848302146097227     
 O     -5.0299325909494597       -5.6683738592138084       -4.5387724192367767     
 O     -3.5927127546971622        13.039702785286604       -8.2454274510835166     
 O     -1.8892048469526386        8.2658542559226298       -7.2988215578021158     
 O     -11.252937699943070        1.6891194465241439        1.3019749508660090     
 O     -2.0644928290739757        8.5827981873351433       -2.9956779382460246     
 O      2.5887224422588906        9.3105633853662617       -6.3498504755520262     
 O     -1.2603331306812777       -2.2238204203672032       -4.5086636718012327     
 O     0.22381887823416380        6.2225436595986627       -5.1248617930611227     
 O      4.2959751619967772        4.1924559342341183        3.0782374640490393     
 O     -3.2014343745790934        4.1599763881972631       -3.9088195170052442     
 O     0.94315474290192070      -0.19805096841648762       -5.7209331839608843     
 O     -5.0754516437566561       0.12244331905083414       -2.3189129022305082     
 O     -1.5812177100945950        1.6340932365058412       -6.5420384718963147     
 O    -0.24945046103440066        7.9341613470576622       -9.8454520747953111     
 O      1.9435106349436666        9.7644523887399437       -3.6738539827397818     
 O     -5.0171784718380597      -0.49802343952236466        4.1398650791694189     
 O     -1.3708803754065115        2.6404027324108665       -2.3879571610889507     
 O      3.0048499456081892        2.7568288851656431       -2.3731634852412333     
 O      2.2654893476302238       -1.1584287332773546       0.36561389085178270     
 O      1.8373031493772392        6.1949958174940267       -9.5390017693552345     
 O     0.67621478404200130       -6.8153775729464239E-002  -1.7174632155089731     
 O     -4.3693368314643237        10.802913830826556       -7.0165669124491501     
 O      2.1452368998101967        1.1712926481899907E-002   2.6998678616743099     
 O     -7.5522643006097097       -2.3312651529565613       0.78375306550438073     
 O     -7.4185462935597677      -0.55815491666219497       -2.7975360976470327     
 O     -1.7265616648210909       -2.3140668688762376       -2.0798763563502800     
 O    -0.36265228202770500        5.5001443544064532       -8.2021942240427101     
 O     -2.1153415248859870      -0.68644728629099139        2.8784057234707960     
 O     -3.6477361562316126        6.2671920211228960       -5.3849201736596104     
 O      1.6856176398049358        2.0414079061040620       -6.7850493672323209     
 O     0.14739006815380473        2.3795077291284517       -4.8558629297566709     
 O     -7.4269435761483615       -1.0206949903086235        3.2036460169781922     
 O     -4.1232733049855428        3.8502782963559365        2.5818171303386710     
 O     -2.8312574795172600      -0.85379411574262809       -5.8180874750689426     
 O      4.3450615455939881        5.8591900348736470       -9.7647884086121302     
 O     0.44299899252971964       -2.1289742456796423        2.2478369155539810     
 O    -0.38462361757670632        8.4620942283654550      -0.84094700185593363     
 O     -3.5672478274370341       -2.1618205105238562       -3.6821826422251100     
 O      2.2503451396018486        7.0461935241244920       -4.6389822251957513     
 O     -3.2483394860791459        1.4540854555727365        3.7185539752047871     
 O     -6.8685182697379332        1.6405112229113066       -3.7514561180128085     
 Si    -6.2545787764891996       0.15635437333488444       -3.6633940166234837     
 Si    -1.4477083162830555       0.99167245698454354       -2.9152555984404751     
 Si    -1.1595813934010588       -1.9774082960532693        2.0195232290301943     
 Si    -4.6800992654101226        3.6197929165211145       0.71536788300231180     
 Si    -2.0830654920527847        4.9591132484617839       -8.7697619050073197     
 Si    -4.0074396914639250       -4.6352026918389306       -4.9568490375169905     
 Si    0.12639260543112982        3.4683672672252497        2.5495940862226680     
 Si    -2.5740143283345063        3.0137809373335820        3.3587776823965227     
 Si    -8.6348508998042099       -2.9840579988429097        1.7923073652659385     
 Si    -4.1201776660743601       0.66640920242284762       -1.0458500055626552     
 Si    -8.4880647205484951      -0.76683074075818258        5.8445472785138772     
 Si    -4.5011510855527090        9.7852729904482736       -5.7749624235093444     
 Si    -6.2143484862988689       -1.4094116863406001        4.4189832786712575     
 Si    0.10343731573617895        9.6231934223906421       -1.6804553464826797     
 Si    -2.7809138125808750       -3.2227369869719613       -2.7952859632519451     
 Si    -2.6250019147411736       -2.3748089949674718       -5.4668354953917895     
 Si     3.1933172420796190        5.9756801503394312       -8.7193527337480443     
 Si    0.14003981675146629        10.542670046403924       -6.3736379352745693     
 Si    -6.0020067497920850       -1.2228411813557141       0.84573319082829967     
 Si    -8.0224890324138780      -0.61878295606581535       -1.1519171113328668     
 Si     1.1578116188937653        6.2471384420929512       -3.8933180415089357     
 Si    -3.5131355518872609       0.43770490473607260       -5.4707920090513271     
 Si    -8.8617332607203565      -0.27454956914717343        2.8593671322059429     
 Si    0.42503466231098158        1.2215481160483199       -5.7796149387058700     
 Si     3.2965665945776186        2.2101551518459943      -0.87476877851971591     
 Si    -1.8903194057101063        9.6695827267207761       -4.1441722886493961     
 Si    -6.3888119214472958       -4.5107771114498778        3.2118224639647472     
 Si    -3.9155997534352522        4.7642338038295149       -5.0825928949341321     
 Si    -2.8770465711453324        7.1129795680744961       -6.8910144685768930     
 Si    -9.5548108396344062        1.4527646943100090       0.73625326210588982     
 Si     2.4357023435525664        3.5754320222958507       -3.8215875796079199     
 Si    -1.2168004844122031        9.0285380026977666       -9.0386448444800482     
 Si    0.22488465204304300        6.2453899231200438       -9.5582627030319340     
 Si    -3.0038296789308521        2.3663521041912312       -6.9551017226652823     
 Si    -1.6167997512942962        5.0716150813728502        2.4149124028011212E-002
 Si    -3.0560546204347894        3.2615690115455997       -2.4042318608953166     
 Si    -1.2258355826894043        7.3433685478012842       -1.7968561723994945     
 Si    -3.8441532620525072       -3.3409147278187290       0.71151918182572238     
 Si    -3.7709842859629377       -7.5756408225975208E-002   3.1358364253764011     
 Si     3.4091335838501085        3.2661964474415974        2.2876917466397857     
 Si     1.6694400445217337       -1.1827880379082460        1.8857704377649627     
 Si    -7.5225442183323583        3.2167279049286464      -0.67690789432539755     
 Si     1.0736476723026263        10.998071684714986       -3.8975982382159136     
 Si    -3.0689513194830180        11.296152015616531       -7.6762941239722497     
 Si     2.6270632225319135        3.3288877440521931       -6.9404766810231129     
 Si    -6.5702983474587473        3.0285965835592177       -3.2322237466877342     
 Si     2.6284532524039374E-002  -1.4298342932075383       -4.4406344395564812     
 Si     2.9114746147376640        7.9814917970825165       -5.6787689811771171     
 Si   -0.72634392432800188       -1.2643029833358697       -1.3479769554282617     
 Si     2.7668841887532611       -1.0036894844590258       -1.2633466639337443     
