  50
   
  O -774.235309961178        90.9219360028897       -984.946093473256     
  C -774.562785938665        92.1290087121161       -984.252815059623     
  C  -773.483227407618        93.1756835298640       -984.585418733587     
  C  -773.530360361895        94.4592901560136       -983.735870315940     
  C  -772.497349837176        95.5358855989409       -984.117225148198     
  C  -772.204969405092        95.6712666126961       -985.623142033039     
  C  -771.149044982380        96.7694833652496       -985.847961022299     
  C  -770.389176239860        96.6244531544931       -987.179563715338     
  C  -769.475856161594        97.7914406123508       -987.598594391827     
  H  -775.084768120424        90.5134685566125       -985.013918107585     
  O  -776.884188879430        88.9705451100693       -980.966186936876     
  C -775.917630952482        89.4231856254557       -980.014460958622     
  C  -775.520684177335        90.8418141804495       -980.463377744515     
  C  -776.744214321941        91.7176573230915       -980.791208149948     
  C  -776.459311465961        93.2221220233223       -980.955574595470     
  C  -777.801802520631        93.9397556252438       -981.188640640881     
  C  -777.689079818207        95.4638759739402       -980.999033797524     
  C  -779.021944392076        96.1529922454308       -981.345719234327     
  C  -778.832721117229        97.6692246786490       -981.537640470028     
  H  -777.404240367413        88.2708028540223       -980.601588219175     
  O  -776.539648916260        89.6544568384004       -985.142606942424     
  C  -777.914829587822        89.9364476675902       -985.415112525517     
  C  -778.547317833881        90.2482015319008       -984.046036871404     
  C  -780.072612482951        90.0671121947970       -983.935208691298     
  C  -780.610312020528        90.6514309450533       -982.615719848834     
  C  -782.115173430786        90.9710921623199       -982.685065664089     
  C  -782.625063835227        91.6664539778560       -981.409101824103     
  C  -781.978071076355        93.0498216077168       -981.210873746826     
  C  -781.940583354012        94.0508302062641       -982.380564499251     
  O  -776.040363845102        87.7917726983201       -983.345770339225     
  H  -776.409878886253        88.3503286105424       -982.661880167280     
  H  -775.092922452529        87.8788632492493       -983.240880475191     
  M  -775.966382299513        87.8744232352435       -983.244796978092     
  O  -778.041385635327        86.1633457725203       -984.860552387650     
  H  -777.315334272069        86.5388859363540       -984.362505358484     
  H  -777.725364336205        85.3018352433028       -985.132879372262     
  M  -777.907987762071        86.1011357025813       -984.831657498664     
  O  -773.302523351429        88.5597214477988       -983.582511690332     
  H  -773.584434611474        89.3330869937305       -984.071043791460     
  H  -772.355041603180        88.5249750492281       -983.714052043535     
  M  -773.217322298918        88.6542736100056       -983.661888445585     
  O  -777.760719800129        86.6062632786208       -980.199196175364     
  H  -778.503932278440        86.4107223325357       -980.769836859583     
  H  -777.219824658026        85.8171681786353       -980.230711384980     
  M  -777.786618860095        86.4802179852203       -980.276279394709     
  H  -776.432171413754        88.7726944724062       -984.820165139347     
  O  -779.496978532591        86.6499548065795       -982.308590488726     
  H  -779.220622425131        86.3402116115574       -983.171097471311     
  H  -780.016901271839        87.4328965282443       -982.490013876658     
  M  -779.528158000059        86.7105299270687       -982.442226171035     
  