          16
           0
 O      25.404839635937208       -10.239603173367609       0.19094147737844114     
 H      25.793930522861704       -9.9066153500722685       0.98514069120916570     
 C      24.083896688806963       -9.7031954856267326       0.30174094921538142     
 C      23.372720707901109       -9.7259469445948206       -1.0640229744908432     
 O     -24.595160364062792       -10.239603173367609       0.19094147737844114     
 H     -24.206069477138300       -9.9066153500722685       0.98514069120916570     
 C     -25.916103311193041       -9.7031954856267326       0.30174094921538142     
 C     -26.627279292098891       -9.7259469445948206       -1.0640229744908432     
 O      25.404839635937208        9.7603968266323911       0.19094147737844114     
 H      25.681195743397268        9.4506536316102832      -0.67156550520649116     
 H      24.884916896689276        10.543338548297189        9.5180894464411692E-003
 M      25.373660168469257        9.8209719471215955        5.7305795069463872E-002
 O     -24.595160364062792        9.7603968266323911       0.19094147737844114     
 H     -24.318804256602732        9.4506536316102832      -0.67156550520649116     
 H     -25.115083103310724        10.543338548297189        9.5180894464411692E-003
 M     -24.626339831530743        9.8209719471215955        5.7305795069463872E-002
          16
                    0
 O      1.3777000631609440       0.59372992734932950       0.11288291494275882     
 H     0.50404047393436713       0.26765575714733814       -4.0151583388762901E-002
 C      1.9046782036452896       -3.8125008355905265E-002   1.2824783063823020     
 C      3.1364891475603827       0.78070956894725896        1.7111410333178014     
 O     -1.3777000631609440      -0.59372992734932950      -0.11288291494275882     
 H     -2.0997106082226082      -0.18102343045688940      -0.56165804821381471     
 C     -2.0423083054305380       -1.4812661623531085       0.79015380405752467     
 C     -2.2036522209912732      -0.79468371006271354        2.1591580688858016     
 O      10000000.000000000        10000000.000000000        10000000.000000000     
 H      10000000.000000000        10000000.000000000        10000000.000000000     
 H      10000000.000000000        10000000.000000000        10000000.000000000     
 M      10000000.000000000        10000000.000000000        10000000.000000000     
 O      10000000.000000000        10000000.000000000        10000000.000000000     
 H      10000000.000000000        10000000.000000000        10000000.000000000     
 H      10000000.000000000        10000000.000000000        10000000.000000000     
 M      10000000.000000000        10000000.000000000        10000000.000000000     
          16
                 5000
 O     0.49298008807143390        1.2010670707960003       -1.2000704970423470     
 H    -0.30722207867090390        1.1474303947732096      -0.70024592849245693     
 C     0.30429203339549815        1.4391761498960136       -2.5974254571268531     
 C      1.5905827720151251        1.9375922400777768       -3.2819965175649344     
 O     -1.4865101962964786        1.4566637572812624E-002  0.40469594975515832     
 H    -0.73854620680512539      -0.45861735890133559       0.73586324268263326     
 C     -2.6822351035180390      -0.58221205435074808       0.91361356500929958     
 C     -3.7842528331122907       0.49171958452620856       0.97548244797145856     
 O     0.99353010822504473       -1.2156337083687845       0.79537454728718160     
 H     0.59880241642031251       -1.8810232667726154       0.23174468213594679     
 H      1.3174777472950439      -0.54925519749141927       0.18937995376256822     
 M     0.98446940752381806       -1.2155071105205195       0.64564850521085759     
 O      10000000.000000000        10000000.000000000        10000000.000000000     
 H      10000000.000000000        10000000.000000000        10000000.000000000     
 H      10000000.000000000        10000000.000000000        10000000.000000000     
 M      10000000.000000000        10000000.000000000        10000000.000000000     
          16
                10000
 O      10000000.000000000        10000000.000000000        10000000.000000000     
 H      10000000.000000000        10000000.000000000        10000000.000000000     
 C      10000000.000000000        10000000.000000000        10000000.000000000     
 C      10000000.000000000        10000000.000000000        10000000.000000000     
 O      10000000.000000000        10000000.000000000        10000000.000000000     
 H      10000000.000000000        10000000.000000000        10000000.000000000     
 C      10000000.000000000        10000000.000000000        10000000.000000000     
 C      10000000.000000000        10000000.000000000        10000000.000000000     
 O      0.0000000000000000        0.0000000000000000        0.0000000000000000     
 H     0.82598094082055695      -0.47936094402527374       -6.4810575874446386E-002
 H    -0.44968913418733791      -0.39652584072092623       0.74617610537572432     
 M      4.8169891159659528E-002 -0.11212407590721796        8.7223008361746679E-002
 O      10000000.000000000        10000000.000000000        10000000.000000000     
 H      10000000.000000000        10000000.000000000        10000000.000000000     
 H      10000000.000000000        10000000.000000000        10000000.000000000     
 M      10000000.000000000        10000000.000000000        10000000.000000000     
          16
                15000
 O      1.3673882954566352      -0.47269200288567959      -0.28597962807498334     
 H     0.97897914400891750       0.22884946434754738      -0.78598252889054265     
 C      2.0145839358547164       -1.2444239835814699       -1.3010991052898930     
 C      3.1019720359815324       -1.9280744289267489      -0.45150556230487382     
 O      10000000.000000000        10000000.000000000        10000000.000000000     
 H      10000000.000000000        10000000.000000000        10000000.000000000     
 C      10000000.000000000        10000000.000000000        10000000.000000000     
 C      10000000.000000000        10000000.000000000        10000000.000000000     
 O    -0.60704010970141553        1.1217856438964020      -0.98280053238619303     
 H     -1.3639279719700426        1.6023152340070794       -1.3181271149579175     
 H    -0.94718980681068388       0.62917362061776316      -0.23589798313562937     
 M    -0.74747415291579955        1.1202389466782279      -0.93011384304040234     
 O    -0.76034818575510599      -0.64909364101063716        1.2687801604611479     
 H    -0.73874083291400439      -0.90573189592993231        2.1906813310949360     
 H     0.12978472979347089      -0.80774647677259281       0.95457559276533743     
 M    -0.64363443137398235      -0.70225591104966156        1.3465726574168855     
          16
                20000
 O     0.67485436291809719        1.3934900907669459       0.67495728256938037     
 H     0.65085566005222972       0.54606328002505933        1.0924699921922070     
 C      1.9034124376911450        1.9724043718364257        1.1226215675908406     
 C      2.3993951402937910        2.9897796070090692        7.8328127232026645E-002
 O    -0.84641175812458869       -1.1138435582508990      -0.56764628746375934     
 H    -0.55660551382777612      -0.43951138619943464       -1.1628886435700281     
 C     -1.6083370690191714       -1.9685511317207016       -1.4242936971204472     
 C     -1.9293950176772228       -3.3590740397802605      -0.84552963831490047     
 O     0.48279924787425443       -1.4007819135488404        1.7701390023268004     
 H    -0.20045335775751028       -1.7412747404979854        2.3476009938852940     
 H      7.6979514726474463E-002  -1.3816800875557718       0.90343414804777922     
 M     0.34338484899575406       -1.4419238392120732        1.7331124262207425     
 O    -0.31124185266787663        1.1211353810327722       -1.8774499974323930     
 H     -7.1821274876526786E-002   1.3115814673142907      -0.97045500563214659     
 H    -0.24067934265798385        1.9636480568421177       -2.3262541454542998     
 M    -0.27156027752482714        1.2533665650930104       -1.8187960414168174     
          16
                25000
 O      10000000.000000000        10000000.000000000        10000000.000000000     
 H      10000000.000000000        10000000.000000000        10000000.000000000     
 C      10000000.000000000        10000000.000000000        10000000.000000000     
 C      10000000.000000000        10000000.000000000        10000000.000000000     
 O      10000000.000000000        10000000.000000000        10000000.000000000     
 H      10000000.000000000        10000000.000000000        10000000.000000000     
 C      10000000.000000000        10000000.000000000        10000000.000000000     
 C      10000000.000000000        10000000.000000000        10000000.000000000     
 O      0.0000000000000000        0.0000000000000000        0.0000000000000000     
 H     0.72854361440840876       0.61712810891179970        6.7889167740077028E-002
 H     -6.9505626962211409E-002 -0.18719630315607105      -0.93614013475789193     
 M      8.4364813599336230E-002   5.5036458207951000E-002 -0.11114659911274316     
 O      10000000.000000000        10000000.000000000        10000000.000000000     
 H      10000000.000000000        10000000.000000000        10000000.000000000     
 H      10000000.000000000        10000000.000000000        10000000.000000000     
 M      10000000.000000000        10000000.000000000        10000000.000000000     
          16
                30000
 O      1.7401073553924675       0.16999570448911072       0.91983121842145010     
 H      1.4555699211901185      -0.39734579083614108       0.21969760530203075     
 C      2.7354716035140427      -0.56885870960542206        1.6327436733093919     
 C      2.1094778699571179       -1.4947354985187928        2.6922171356004014     
 O     0.78345052440334939      -0.87178160873313004       -1.6193435388216812     
 H    -0.14308255844554196       -1.0220758729800536       -1.5099219663551935     
 C     0.98812282512750471      -0.20161485001372625       -2.8658930824916524     
 C      2.1143485872985366      -0.95343238975030431       -3.5993683169519954     
 O    -0.78262067047802475        1.4144909605071803        1.1411364004026154     
 H    -0.73411745666962247        1.7080759928231259        2.0509095078591031     
 H     0.12190522966403705        1.2056192715947702       0.90781826235445351     
 M    -0.66062144572063630        1.4253352905188308        1.2277307978266663     
 O     -1.7409372093177922      -0.71270505626310410      -0.44162408000244113     
 H     -1.4554326670872513        4.3047828439114255E-002   7.1753533096114097E-002
 H     -2.4833686965952495       -1.0680906428490857        4.6974335411732682E-002
 M     -1.7994293710474381      -0.66145321172618310      -0.31335905964300537     
          16
                35000
 O      10000000.000000000        10000000.000000000        10000000.000000000     
 H      10000000.000000000        10000000.000000000        10000000.000000000     
 C      10000000.000000000        10000000.000000000        10000000.000000000     
 C      10000000.000000000        10000000.000000000        10000000.000000000     
 O      10000000.000000000        10000000.000000000        10000000.000000000     
 H      10000000.000000000        10000000.000000000        10000000.000000000     
 C      10000000.000000000        10000000.000000000        10000000.000000000     
 C      10000000.000000000        10000000.000000000        10000000.000000000     
 O    -0.84477420672934045      -0.71303988900197623       0.92588282846048742     
 H     -1.2102940882935229        5.1614010707453417E-002   1.3707777259825775     
 H    -0.27612200037629009      -0.34737877633330072       0.24827050648644899     
 M    -0.81877081839178345      -0.56834593031524605       0.89609219042461064     
 O     0.84477420672934045       0.71303988900194781      -0.92588282846048742     
 H      1.2831241228889496        1.5040575843332249      -0.61223940564343593     
 H      1.5378278992228616       0.20646251143239169       -1.3493067057455050     
 M     0.98960751887310039       0.74945168141053387      -0.93993605112007117     
          16
                40000
 O     0.77907848611958741       0.78549133752255784      -0.81863043639816624     
 H     0.36875295450753143       0.16913365488176169      -0.23146677509333813     
 C      1.2636790759651397       0.12954519943821197       -1.9932780142927982     
 C      1.3751094746237023        1.2320275709550117       -3.0627245472010713     
 O    -0.77907848611958919      -0.78549133752255784       0.81863043639822308     
 H     -1.6392941721009073      -0.97510572883778934       0.47643114329861191     
 C     -1.0219594690662532       0.12162996990457486        1.8970736485027260     
 C     0.32502161974750798       0.59047045551588440        2.4779613703817631     
 O      10000000.000000000        10000000.000000000        10000000.000000000     
 H      10000000.000000000        10000000.000000000        10000000.000000000     
 H      10000000.000000000        10000000.000000000        10000000.000000000     
 M      10000000.000000000        10000000.000000000        10000000.000000000     
 O      10000000.000000000        10000000.000000000        10000000.000000000     
 H      10000000.000000000        10000000.000000000        10000000.000000000     
 H      10000000.000000000        10000000.000000000        10000000.000000000     
 M      10000000.000000000        10000000.000000000        10000000.000000000     
          16
                45000
 O      1.7456456301625849       -1.0776462377528944       -1.4568991823944657     
 H      1.2870485045434350       -1.6823416995150993      -0.89382096855729287     
 C      2.0232608992753853       -1.7433747810192344       -2.6916604018356907     
 C      2.4917884559421566      -0.61382681506744774       -3.6277177298119341     
 O     -1.0992609677743985        1.2492477362014469        1.8719887027544928     
 H     -2.0350505203009845        1.1551187800579754        1.7799960237119308     
 C    -0.84309656400827748        1.3012754417811649        3.2778951420652334     
 C     0.20321158005714324        2.4284395013734681        3.3575220874150773     
 O    -0.64638466238812953      -0.17160149844855965      -0.41508952035985658     
 H    -0.59397166060693962       0.48251246047582441       0.28177463138376879     
 H     0.23703969845271899      -0.20235976826698732      -0.78230494420529340     
 M    -0.52658618921734046       -9.1804449537995936E-002 -0.37289050602100815     
 O      10000000.000000000        10000000.000000000        10000000.000000000     
 H      10000000.000000000        10000000.000000000        10000000.000000000     
 H      10000000.000000000        10000000.000000000        10000000.000000000     
 M      10000000.000000000        10000000.000000000        10000000.000000000     
          16
                50000
 O      0.0000000000000000        0.0000000000000000        0.0000000000000000     
 H     -9.8751124841911064E-002  0.14988204018812468      -0.92779770929416827     
 C    -0.61635565492585442        1.0722993005461561       0.71776034767123065     
 C     0.14619338222645695        1.2056524310020400        2.0490514159713484     
 O      10000000.000000000        10000000.000000000        10000000.000000000     
 H      10000000.000000000        10000000.000000000        10000000.000000000     
 C      10000000.000000000        10000000.000000000        10000000.000000000     
 C      10000000.000000000        10000000.000000000        10000000.000000000     
 O      10000000.000000000        10000000.000000000        10000000.000000000     
 H      10000000.000000000        10000000.000000000        10000000.000000000     
 H      10000000.000000000        10000000.000000000        10000000.000000000     
 M      10000000.000000000        10000000.000000000        10000000.000000000     
 O      10000000.000000000        10000000.000000000        10000000.000000000     
 H      10000000.000000000        10000000.000000000        10000000.000000000     
 H      10000000.000000000        10000000.000000000        10000000.000000000     
 M      10000000.000000000        10000000.000000000        10000000.000000000     
          16
                55000
 O     0.57303234668430747       0.64499752733274818        1.0174168413955158     
 H     -4.4814672038640424E-002  0.52984040764927443        1.7231284675158349     
 C      1.5794055448935325        1.6338504236453240        1.2504038268267550     
 C      1.8110419803784765        2.4059494446560450       -6.1772862308544063E-002
 O      10000000.000000000        10000000.000000000        10000000.000000000     
 H      10000000.000000000        10000000.000000000        10000000.000000000     
 C      10000000.000000000        10000000.000000000        10000000.000000000     
 C      10000000.000000000        10000000.000000000        10000000.000000000     
 O    -0.57303234668431458      -0.64499752733274818       -1.0174168413955158     
 H     -6.2628505651929345E-003 -0.98201692157911324       -1.7112627221006278     
 H      2.8635796760212884E-002 -0.24758497829816406      -0.38790071687355976     
 M    -0.42345823177316078      -0.63726647488479315       -1.0256518263163343     
 O      10000000.000000000        10000000.000000000        10000000.000000000     
 H      10000000.000000000        10000000.000000000        10000000.000000000     
 H      10000000.000000000        10000000.000000000        10000000.000000000     
 M      10000000.000000000        10000000.000000000        10000000.000000000     
          16
                60000
 O     0.69272942868629173        1.3781821288694260       0.37082658654151146     
 H     0.89857736857155146       0.47612156109522630       0.56302012886766306     
 C      1.7687187690356581        1.9468295956952630      -0.38003092186283993     
 C      1.6161334886460423        1.6910945955268062       -1.8909635285323816     
 O      10000000.000000000        10000000.000000000        10000000.000000000     
 H      10000000.000000000        10000000.000000000        10000000.000000000     
 C      10000000.000000000        10000000.000000000        10000000.000000000     
 C      10000000.000000000        10000000.000000000        10000000.000000000     
 O     -1.4128642985167232      -0.10118674256577265      -0.76199666231394758     
 H     -1.0753496012157768       0.18595872660624480       -1.6104441554686559     
 H     -1.2379611010127149       0.63295938173824595      -0.17320962129542750     
 M     -1.3472686257263291        2.9550903148148677E-002 -0.79523633295616492     
 O     0.72013486983044572       -1.2769953863036676       0.39117007577249296     
 H     -8.8771155166909921E-002  -1.1258831360483299       -9.7775698875693706E-002
 H     0.78950898264598379       -2.2297534509275465       0.45176003174310608     
 M     0.62546586271551519       -1.3796157222947016       0.33633536292580857     
          16
                65000
 O     -1.2468115087767160       -1.0657883914560671       -1.0494383031984853     
 H     -1.1272432222448288       -1.2639465657723576      -0.13321684372078835     
 C     -2.3653884828611638       -1.8090763432107337       -1.5405681982613260     
 C     -2.4139019138409310       -1.5403112957087615       -3.0561577852722053     
 O    -0.41007670074247926       -1.1829831434399694        1.4957529380352526     
 H     0.14443537371207071      -0.41809090583996067        1.5176897596689400     
 C     0.16516551048013639       -2.2626680522122342        2.2362101590799170     
 C    -0.43546820796720453       -3.6501482759768464        1.9434000415528203     
 O     0.49675634473936725        1.0371565204850413       -1.5214196732994196     
 H    -0.19728394737006738       0.38020957614929785       -1.4670080453388437     
 H      1.0435119262600949       0.74867262691512337       -2.2522186998621123     
 M     0.47790212481413619       0.91612996673390512       -1.6080054208452452     
 O      1.1601318647798280        1.2116150144110236        1.0751050384626524     
 H      1.0404805327616202        1.2257428748657162       0.12551786378804763     
 H      1.6988928208055825        1.9807508270239396        1.2605735641419074     
 M      1.2137829531563398        1.3118822145368938       0.97728863240013197     
          16
                70000
 O      0.0000000000000000        0.0000000000000000        0.0000000000000000     
 H     0.68577832453161136      -0.63146673809484355      -0.15486396702442562     
 C     0.59977559633944111        1.1328420910259638       0.63390695755418847     
 C     0.42369238586394431        2.3207036238413821      -0.33024016910547971     
 O      10000000.000000000        10000000.000000000        10000000.000000000     
 H      10000000.000000000        10000000.000000000        10000000.000000000     
 C      10000000.000000000        10000000.000000000        10000000.000000000     
 C      10000000.000000000        10000000.000000000        10000000.000000000     
 O      10000000.000000000        10000000.000000000        10000000.000000000     
 H      10000000.000000000        10000000.000000000        10000000.000000000     
 H      10000000.000000000        10000000.000000000        10000000.000000000     
 M      10000000.000000000        10000000.000000000        10000000.000000000     
 O      10000000.000000000        10000000.000000000        10000000.000000000     
 H      10000000.000000000        10000000.000000000        10000000.000000000     
 H      10000000.000000000        10000000.000000000        10000000.000000000     
 M      10000000.000000000        10000000.000000000        10000000.000000000     
          16
                75000
 O     0.60436976332698578       -1.3622682203970271        1.4740709598974604     
 H     0.10602459818278476      -0.56002409273324361        1.4411854614749018     
 C    -0.28045484511306995       -2.2605750910659594        2.1486302074123955     
 C    -0.39933919122302086       -1.8642341073083912        3.6319981108147203     
 O    -0.86235915805883678       0.94018781377025107        1.3081734089943780     
 H     -1.1487531102318940        1.0407654305448375       0.41325014571276597     
 C     -1.5289307392890805E-002   2.0863970981380362        1.4246935554146489     
 C    -0.92425389426006177        3.3203323587853788        1.2737394155157631     
 O      1.2836177513486291      -0.45426237956027649       -1.0721882293807425     
 H      2.2117026747832824      -0.22390226243510369       -1.1149015918367127     
 H      1.1921174596791388      -0.92972157571415437      -0.24647757217906019     
 M      1.3907106774983049      -0.48563801876508705      -0.97195512889362590     
 O     -1.0256283566167212       0.87634278618705252       -1.7100561395110390     
 H    -0.21913388009630808       0.36127820224453444       -1.7325722162303236     
 H     -1.4792789900297976       0.64746685387095226       -2.5212581799485179     
 M    -0.98046008768426418       0.78110942456180510       -1.8167821172074241     
          16
                80000
 O      0.0000000000000000        0.0000000000000000        0.0000000000000000     
 H    -0.54008366016773834       0.52260045921417486      -0.57290784603540601     
 C    -0.89657548694373190      -0.89197832479959516       0.66740322466952762     
 C    -0.16068059053895922       -2.1518070813271777        1.1602421493412578     
 O      10000000.000000000        10000000.000000000        10000000.000000000     
 H      10000000.000000000        10000000.000000000        10000000.000000000     
 C      10000000.000000000        10000000.000000000        10000000.000000000     
 C      10000000.000000000        10000000.000000000        10000000.000000000     
 O      10000000.000000000        10000000.000000000        10000000.000000000     
 H      10000000.000000000        10000000.000000000        10000000.000000000     
 H      10000000.000000000        10000000.000000000        10000000.000000000     
 M      10000000.000000000        10000000.000000000        10000000.000000000     
 O      10000000.000000000        10000000.000000000        10000000.000000000     
 H      10000000.000000000        10000000.000000000        10000000.000000000     
 H      10000000.000000000        10000000.000000000        10000000.000000000     
 M      10000000.000000000        10000000.000000000        10000000.000000000     
          16
                85000
 O    -0.88690475834761173       0.78009912039817664      -0.66497796679195176     
 H    -0.28995649186197170       0.23388532252772620      -0.17678921829840988     
 C     -1.1791071343274666        2.0098070160044585        3.8540472110639712E-003
 C     -2.2248434406216120        2.7676407576032034      -0.83502830317701182     
 O      10000000.000000000        10000000.000000000        10000000.000000000     
 H      10000000.000000000        10000000.000000000        10000000.000000000     
 C      10000000.000000000        10000000.000000000        10000000.000000000     
 C      10000000.000000000        10000000.000000000        10000000.000000000     
 O     0.88690475834755489      -0.78009912039823348       0.66497796679198018     
 H      1.7137664246315012      -0.42834239723634937       0.99482464714739649     
 H      1.1061349044636586       -1.6593605841823660       0.35664493038885325     
 M      1.0208171312954164      -0.84762609147355761       0.66773197277632335     
 O      10000000.000000000        10000000.000000000        10000000.000000000     
 H      10000000.000000000        10000000.000000000        10000000.000000000     
 H      10000000.000000000        10000000.000000000        10000000.000000000     
 M      10000000.000000000        10000000.000000000        10000000.000000000     
          16
                90000
 O     0.52689950469442692       -1.3904947102983556        1.3097130594071018     
 H    -0.40536130144539584       -1.5314913962102423        1.2461935828870310     
 C     0.73839539127419584       -1.2434160281347886        2.7163179617207902     
 C      1.0776556238795933       -2.6152791701128990        3.3282771223307464     
 O      10000000.000000000        10000000.000000000        10000000.000000000     
 H      10000000.000000000        10000000.000000000        10000000.000000000     
 C      10000000.000000000        10000000.000000000        10000000.000000000     
 C      10000000.000000000        10000000.000000000        10000000.000000000     
 O    -0.52689950469448377        1.3904947102983556       -1.3097130594071018     
 H    -0.30374290402102133       0.83073685113078000      -0.56600336424583020     
 H    -0.17706823941387029       0.92829730738145599       -2.0714370819823102     
 M    -0.45355014482822753        1.2596721069956516       -1.3120191106569337     
 O      10000000.000000000        10000000.000000000        10000000.000000000     
 H      10000000.000000000        10000000.000000000        10000000.000000000     
 H      10000000.000000000        10000000.000000000        10000000.000000000     
 M      10000000.000000000        10000000.000000000        10000000.000000000     
          16
                95000
 O      1.2944089066356810       0.60895952857640623       0.32625548277081862     
 H     0.48094236147585434       0.42099658090512548      -0.11642624286110959     
 C      2.2964329337223717      -0.22179866566926876      -0.26593424344423511     
 C      3.5893309810965093       0.17668597360614058       0.46974546360075919     
 O     -1.2944089066356241      -0.60895952857646307      -0.32625548277076177     
 H     -1.6655004118044303       -1.1422718859252541       0.35996170172018083     
 C     -2.2843471942513816       0.19515960495488116      -0.97302793564830381     
 C     -2.1701302044609179        1.6254916025234252      -0.41382774253781918     
 O      10000000.000000000        10000000.000000000        10000000.000000000     
 H      10000000.000000000        10000000.000000000        10000000.000000000     
 H      10000000.000000000        10000000.000000000        10000000.000000000     
 M      10000000.000000000        10000000.000000000        10000000.000000000     
 O      10000000.000000000        10000000.000000000        10000000.000000000     
 H      10000000.000000000        10000000.000000000        10000000.000000000     
 H      10000000.000000000        10000000.000000000        10000000.000000000     
 M      10000000.000000000        10000000.000000000        10000000.000000000     
          16
               100000
 O      10000000.000000000        10000000.000000000        10000000.000000000     
 H      10000000.000000000        10000000.000000000        10000000.000000000     
 C      10000000.000000000        10000000.000000000        10000000.000000000     
 C      10000000.000000000        10000000.000000000        10000000.000000000     
 O      10000000.000000000        10000000.000000000        10000000.000000000     
 H      10000000.000000000        10000000.000000000        10000000.000000000     
 C      10000000.000000000        10000000.000000000        10000000.000000000     
 C      10000000.000000000        10000000.000000000        10000000.000000000     
 O      0.0000000000000000        0.0000000000000000        0.0000000000000000     
 H     -4.7775317791717953E-002 -0.71892939344235174      -0.63015068535651153     
 H    -0.17923146018580383       0.78504100922384623      -0.51751187185965364     
 M     -2.9059606387420445E-002   8.4630844485218404E-003 -0.14691465372209223     
 O      10000000.000000000        10000000.000000000        10000000.000000000     
 H      10000000.000000000        10000000.000000000        10000000.000000000     
 H      10000000.000000000        10000000.000000000        10000000.000000000     
 M      10000000.000000000        10000000.000000000        10000000.000000000     
          16
               100001
 O      10000000.000000000        10000000.000000000        10000000.000000000     
 H      10000000.000000000        10000000.000000000        10000000.000000000     
 C      10000000.000000000        10000000.000000000        10000000.000000000     
 C      10000000.000000000        10000000.000000000        10000000.000000000     
 O      10000000.000000000        10000000.000000000        10000000.000000000     
 H      10000000.000000000        10000000.000000000        10000000.000000000     
 C      10000000.000000000        10000000.000000000        10000000.000000000     
 C      10000000.000000000        10000000.000000000        10000000.000000000     
 O      0.0000000000000000        0.0000000000000000        0.0000000000000000     
 H     -4.7775317791717953E-002 -0.71892939344235174      -0.63015068535651153     
 H    -0.17923146018580383       0.78504100922384623      -0.51751187185965364     
 M     -2.9059606387420445E-002   8.4630844485218404E-003 -0.14691465372209223     
 O      10000000.000000000        10000000.000000000        10000000.000000000     
 H      10000000.000000000        10000000.000000000        10000000.000000000     
 H      10000000.000000000        10000000.000000000        10000000.000000000     
 M      10000000.000000000        10000000.000000000        10000000.000000000     
