          16
           0
 O      25.404839635937208       -10.239603173367609       0.19094147737844114     
 H      25.793930522861704       -9.9066153500722685       0.98514069120916570     
 C      24.083896688806963       -9.7031954856267326       0.30174094921538142     
 C      23.372720707901109       -9.7259469445948206       -1.0640229744908432     
 O     -24.595160364062792       -10.239603173367609       0.19094147737844114     
 H     -24.206069477138300       -9.9066153500722685       0.98514069120916570     
 C     -25.916103311193041       -9.7031954856267326       0.30174094921538142     
 C     -26.627279292098891       -9.7259469445948206       -1.0640229744908432     
 O      25.404839635937208        9.7603968266323911       0.19094147737844114     
 H      25.681195743397268        9.4506536316102832      -0.67156550520649116     
 H      24.884916896689276        10.543338548297189        9.5180894464411692E-003
 M      25.373660168469257        9.8209719471215955        5.7305795069463872E-002
 O     -24.595160364062792        9.7603968266323911       0.19094147737844114     
 H     -24.318804256602732        9.4506536316102832      -0.67156550520649116     
 H     -25.115083103310724        10.543338548297189        9.5180894464411692E-003
 M     -24.626339831530743        9.8209719471215955        5.7305795069463872E-002
          16
                    0
 O      1.3777000631609440       0.59372992734932950       0.11288291494275882     
 H     0.50404047393436713       0.26765575714733814       -4.0151583388762901E-002
 C      1.9046782036452896       -3.8125008355905265E-002   1.2824783063823020     
 C      3.1364891475603827       0.78070956894725896        1.7111410333178014     
 O     -1.3777000631609440      -0.59372992734932950      -0.11288291494275882     
 H     -2.0997106082226082      -0.18102343045688940      -0.56165804821381471     
 C     -2.0423083054305380       -1.4812661623531085       0.79015380405752467     
 C     -2.2036522209912732      -0.79468371006271354        2.1591580688858016     
 O      10000000.000000000        10000000.000000000        10000000.000000000     
 H      10000000.000000000        10000000.000000000        10000000.000000000     
 H      10000000.000000000        10000000.000000000        10000000.000000000     
 M      10000000.000000000        10000000.000000000        10000000.000000000     
 O      10000000.000000000        10000000.000000000        10000000.000000000     
 H      10000000.000000000        10000000.000000000        10000000.000000000     
 H      10000000.000000000        10000000.000000000        10000000.000000000     
 M      10000000.000000000        10000000.000000000        10000000.000000000     
          16
                 5000
 O      10000000.000000000        10000000.000000000        10000000.000000000     
 H      10000000.000000000        10000000.000000000        10000000.000000000     
 C      10000000.000000000        10000000.000000000        10000000.000000000     
 C      10000000.000000000        10000000.000000000        10000000.000000000     
 O      10000000.000000000        10000000.000000000        10000000.000000000     
 H      10000000.000000000        10000000.000000000        10000000.000000000     
 C      10000000.000000000        10000000.000000000        10000000.000000000     
 C      10000000.000000000        10000000.000000000        10000000.000000000     
 O      0.0000000000000000        0.0000000000000000        0.0000000000000000     
 H     -4.5370659436628102E-002 -0.24304839715480853      -0.92471661599839194     
 H     0.23454550576052213       0.92799312843125392       -6.9999507964197960E-003
 M      2.4216662699991787E-002   8.7681189371934920E-002 -0.11927096158767370     
 O      10000000.000000000        10000000.000000000        10000000.000000000     
 H      10000000.000000000        10000000.000000000        10000000.000000000     
 H      10000000.000000000        10000000.000000000        10000000.000000000     
 M      10000000.000000000        10000000.000000000        10000000.000000000     
          16
                10000
 O     0.39421601763996961       -1.5127086836195929       0.33868107613481513     
 H     0.74706205965589056      -0.98435945006451675      -0.36087003567578968     
 C      1.2452627864270163       -2.6529608261702720       0.48166516177269081     
 C     0.77070457586396124       -3.5554130278939056        1.6357771703712416     
 O      10000000.000000000        10000000.000000000        10000000.000000000     
 H      10000000.000000000        10000000.000000000        10000000.000000000     
 C      10000000.000000000        10000000.000000000        10000000.000000000     
 C      10000000.000000000        10000000.000000000        10000000.000000000     
 O     -1.4130141557185993       0.60506733579933325       0.58292213499979439     
 H    -0.95147559980401297      -0.18052117692857905       0.87628997590081781     
 H     -2.0212792952947076       0.29038541222314507       -8.5823442144539186E-002
 M     -1.4317969286640526       0.46421944533409487       0.53486925587667145     
 O      1.0187981380786262       0.90764134782034489      -0.92160321113461485     
 H      1.5650748048663150        1.6764855203986997       -1.0849809379406299     
 H     0.27109604601667314        1.2449515941879667      -0.42825220097975070     
 M     0.99301325347214942        1.0492424590531755      -0.87936264978072032     
          16
                15000
 O     0.24713823547850211       -1.3532606015403985       0.49630758873879799     
 H     0.90059696039448767      -0.76845029415795807       0.14415194245378160     
 C     0.78884296868759662       -2.0463453422790394        1.6237336502497151     
 C    -0.17330481254708729       -3.1140289828157393        2.1768369776629335     
 O      1.3381643506310681       0.93597517287008714      -0.28923038556456504     
 H     0.50625331500735626        1.3573271533210232      -0.13622209370570104     
 C      1.7683913126552042        1.1869836092529340       -1.6296778951717563     
 C      3.2484132036396360       0.78394532894884605       -1.7664088237006936     
 O     -1.5853025861095915       0.41728542867036822      -0.20707720317423650     
 H    -0.99515568147297984      -0.32474278354004582       -7.5347923086063417E-002
 H     -2.3554439797560320        3.9031939043752573E-002 -0.63138649057778906     
 M     -1.6083440523128445       0.27387585478356868      -0.24453097405090674     
 O      10000000.000000000        10000000.000000000        10000000.000000000     
 H      10000000.000000000        10000000.000000000        10000000.000000000     
 H      10000000.000000000        10000000.000000000        10000000.000000000     
 M      10000000.000000000        10000000.000000000        10000000.000000000     
          16
                20000
 O     0.59793163520585324       -1.0565380025711875        1.2674819958516395     
 H     -9.9176250860359971E-002  -1.3479414916020573       0.69989975355991874     
 C     0.31723027825660211       -1.6208963621396038        2.5510732042167064     
 C      1.5076319150807009       -1.2187827463727672        3.4414936571834147     
 O     -1.2701186333539169       -1.4676815473380884      -0.87835653076963638     
 H     -1.5930406512274118      -0.63409315641547437       -1.1847496848895389     
 C     -1.3514239327426267       -2.3049172019680100       -2.0347846119349384     
 C    -0.40277937032185207       -1.8627565654236378       -3.1644604352047025     
 O      1.5596143968202512       0.73179354505492711      -0.30714089066820804     
 H      2.5134668429455260       0.69940220569014855      -0.23400982917090118     
 H      1.2579751756730033       -6.2137913112565002E-002  0.13435481712161845     
 M      1.6431055584841516       0.62601425749403461      -0.24126245529549806     
 O    -0.88742739867218745        1.7924260048544056       -8.1984574413809241E-002
 H     -4.2012814695631562E-002   1.4239683400871854      -0.33839239503315355     
 H    -0.71651006615797996        2.7270182637649896        3.4447444506497504E-002
 M    -0.75732465145007666        1.8648980632447092       -9.9903165820151685E-002
          16
                25000
 O     0.17750933937605140      -0.18750745372284428        1.2814805240567466     
 H      1.1065082326928959      -0.24291733155365591        1.1174201642654680     
 C    -0.21617405085079966       -1.0379167137928675        2.3616274949114882     
 C     -1.5964374900842095       -1.6670524876111017        2.0958060954386042     
 O      10000000.000000000        10000000.000000000        10000000.000000000     
 H      10000000.000000000        10000000.000000000        10000000.000000000     
 C      10000000.000000000        10000000.000000000        10000000.000000000     
 C      10000000.000000000        10000000.000000000        10000000.000000000     
 O    -0.17750933937604785       0.18750745372284428       -1.2814805240567466     
 H    -0.21241174761464165       0.29410954146146651      -0.33087563411055498     
 H    -0.30504819340271183        1.0710530715440427       -1.6268974054360115     
 M    -0.19830378077930533       0.31425830603689064       -1.2040091574465919     
 O      10000000.000000000        10000000.000000000        10000000.000000000     
 H      10000000.000000000        10000000.000000000        10000000.000000000     
 H      10000000.000000000        10000000.000000000        10000000.000000000     
 M      10000000.000000000        10000000.000000000        10000000.000000000     
          16
                30000
 O      0.0000000000000000        0.0000000000000000        0.0000000000000000     
 H    -0.45451089109796783       0.21494251822417709      -0.80015283773337842     
 C     0.10774793105348124        1.2249479054291896       0.72992671710130708     
 C      1.2140810873811319        1.0049860583667396        1.7783749671580154     
 O      10000000.000000000        10000000.000000000        10000000.000000000     
 H      10000000.000000000        10000000.000000000        10000000.000000000     
 C      10000000.000000000        10000000.000000000        10000000.000000000     
 C      10000000.000000000        10000000.000000000        10000000.000000000     
 O      10000000.000000000        10000000.000000000        10000000.000000000     
 H      10000000.000000000        10000000.000000000        10000000.000000000     
 H      10000000.000000000        10000000.000000000        10000000.000000000     
 M      10000000.000000000        10000000.000000000        10000000.000000000     
 O      10000000.000000000        10000000.000000000        10000000.000000000     
 H      10000000.000000000        10000000.000000000        10000000.000000000     
 H      10000000.000000000        10000000.000000000        10000000.000000000     
 M      10000000.000000000        10000000.000000000        10000000.000000000     
          16
                35000
 O      10000000.000000000        10000000.000000000        10000000.000000000     
 H      10000000.000000000        10000000.000000000        10000000.000000000     
 C      10000000.000000000        10000000.000000000        10000000.000000000     
 C      10000000.000000000        10000000.000000000        10000000.000000000     
 O      10000000.000000000        10000000.000000000        10000000.000000000     
 H      10000000.000000000        10000000.000000000        10000000.000000000     
 C      10000000.000000000        10000000.000000000        10000000.000000000     
 C      10000000.000000000        10000000.000000000        10000000.000000000     
 O    -0.49840405800202348        1.2789667037760637       0.10773807625355403     
 H     -1.0839354651066060        1.6498084639785020      -0.55245977301996163     
 H     0.36685142079892330        1.6184186883433540      -0.12103505717124108     
 M    -0.46259600199030615        1.3698928727068278       -6.0609348504954141E-003
 O     0.49840405800202348       -1.2789667037761774      -0.10773807625349718     
 H     0.95480495373493568       -1.3446334846555601       0.73108129420944579     
 H    -0.27960261002971265      -0.75489283531737783        8.2745636688002833E-002
 M     0.45723463901553885       -1.2202850659450633        2.4025136828981886E-002
          16
                40000
 O      0.0000000000000000        0.0000000000000000        0.0000000000000000     
 H    -0.25552404403244111      -0.75419196250209097      -0.50884864804629615     
 C     0.42405260692807900        1.0349960598358621      -0.89098964229771127     
 C      1.0374949281752563        2.1887205841155719       -7.5999924216318959E-002
 O      10000000.000000000        10000000.000000000        10000000.000000000     
 H      10000000.000000000        10000000.000000000        10000000.000000000     
 C      10000000.000000000        10000000.000000000        10000000.000000000     
 C      10000000.000000000        10000000.000000000        10000000.000000000     
 O      10000000.000000000        10000000.000000000        10000000.000000000     
 H      10000000.000000000        10000000.000000000        10000000.000000000     
 H      10000000.000000000        10000000.000000000        10000000.000000000     
 M      10000000.000000000        10000000.000000000        10000000.000000000     
 O      10000000.000000000        10000000.000000000        10000000.000000000     
 H      10000000.000000000        10000000.000000000        10000000.000000000     
 H      10000000.000000000        10000000.000000000        10000000.000000000     
 M      10000000.000000000        10000000.000000000        10000000.000000000     
          16
                45000
 O     0.82647767330848865      -0.64844941167109482      -0.99173365459921570     
 H     0.37871079659740303       -1.0268491896359819       -1.7329107131732826     
 C      2.2053422366962536       -1.0099557623833562       -1.1055127134289933     
 C      2.9175342092131586       -4.3524838926373377E-002 -0.14094344973210582     
 O      10000000.000000000        10000000.000000000        10000000.000000000     
 H      10000000.000000000        10000000.000000000        10000000.000000000     
 C      10000000.000000000        10000000.000000000        10000000.000000000     
 C      10000000.000000000        10000000.000000000        10000000.000000000     
 O    -0.82647767330848865       0.64844941167120851       0.99173365459915885     
 H    -0.33996870216080310       0.16852275894564173       0.32150140455661358     
 H    -0.27840677247201029        1.4081985231601948        1.1882824150818010     
 M    -0.69403896762361228       0.68427006241427080       0.93109645300711463     
 O      10000000.000000000        10000000.000000000        10000000.000000000     
 H      10000000.000000000        10000000.000000000        10000000.000000000     
 H      10000000.000000000        10000000.000000000        10000000.000000000     
 M      10000000.000000000        10000000.000000000        10000000.000000000     
          16
                50000
 O      10000000.000000000        10000000.000000000        10000000.000000000     
 H      10000000.000000000        10000000.000000000        10000000.000000000     
 C      10000000.000000000        10000000.000000000        10000000.000000000     
 C      10000000.000000000        10000000.000000000        10000000.000000000     
 O      10000000.000000000        10000000.000000000        10000000.000000000     
 H      10000000.000000000        10000000.000000000        10000000.000000000     
 C      10000000.000000000        10000000.000000000        10000000.000000000     
 C      10000000.000000000        10000000.000000000        10000000.000000000     
 O      0.0000000000000000        0.0000000000000000        0.0000000000000000     
 H    -0.22950099452572204       0.38352229987265218       0.84644656004547869     
 H    -0.84020824117146731      -0.13354852910492809      -0.43868752186580195     
 M    -0.13693568807116208        3.1999658558220290E-002   5.2198076446245523E-002
 O      10000000.000000000        10000000.000000000        10000000.000000000     
 H      10000000.000000000        10000000.000000000        10000000.000000000     
 H      10000000.000000000        10000000.000000000        10000000.000000000     
 M      10000000.000000000        10000000.000000000        10000000.000000000     
          16
                55000
 O      10000000.000000000        10000000.000000000        10000000.000000000     
 H      10000000.000000000        10000000.000000000        10000000.000000000     
 C      10000000.000000000        10000000.000000000        10000000.000000000     
 C      10000000.000000000        10000000.000000000        10000000.000000000     
 O      10000000.000000000        10000000.000000000        10000000.000000000     
 H      10000000.000000000        10000000.000000000        10000000.000000000     
 C      10000000.000000000        10000000.000000000        10000000.000000000     
 C      10000000.000000000        10000000.000000000        10000000.000000000     
 O      9.4827549309570713E-002  0.83710566226920946        1.4226104692676245     
 H     0.12356057322227798       0.93435584587757603       0.47079711827598203     
 H    -0.18870954627152514       -6.6278410133691068E-002   1.5630945365385287     
 M      6.2209553957529806E-002  0.73391079860380160        1.3187505323701316     
 O     -9.4827549309513870E-002 -0.83710566226909577       -1.4226104692675108     
 H    -0.40637841522482177      -0.53302660955500869       -2.2750797224659891     
 H    -0.23142722177243513       -1.7843282921317041       -1.4410944882650938     
 M    -0.15219622510005593      -0.91943579958729060       -1.5341029960451351     
          16
                60000
 O    -0.14198737823278407        1.4127491251160791        4.1650458077185704E-002
 H    -0.26779533857097704        1.4790338661896385       0.97589009019327477     
 C     0.46052806396255619        2.6197708367805035      -0.43266349858737385     
 C      1.9675189341611485        2.3026308366024750      -0.43180476401238366     
 O      10000000.000000000        10000000.000000000        10000000.000000000     
 H      10000000.000000000        10000000.000000000        10000000.000000000     
 C      10000000.000000000        10000000.000000000        10000000.000000000     
 C      10000000.000000000        10000000.000000000        10000000.000000000     
 O     0.14198737823289775       -1.4127491251161928       -4.1650458077128860E-002
 H      1.0567818331144281       -1.6309829091887877      -0.21985528631716988     
 H      7.6651354387081483E-002 -0.47727126929271435      -0.23359895442791867     
 M     0.25072830600981888       -1.3209332304758163       -8.9034549475400127E-002
 O      10000000.000000000        10000000.000000000        10000000.000000000     
 H      10000000.000000000        10000000.000000000        10000000.000000000     
 H      10000000.000000000        10000000.000000000        10000000.000000000     
 M      10000000.000000000        10000000.000000000        10000000.000000000     
          16
                65000
 O    -0.33120970720904097        1.4097985708899614       0.10691257184282676     
 H     -8.8119997978992615E-002  0.52275581596495613      -0.11008407375669549     
 C    -0.23392403370007742        1.6336449842249294        1.5159293499427235     
 C    -0.98295736645889065        2.9375198951253196        1.8482835031298350     
 O     0.33120970720904097       -1.4097985708898477      -0.10691257184288361     
 H     0.16133489744470353       -2.1028196730620721      -0.72650058088720471     
 C      1.3002811521714648       -1.8950410188510887       0.82600773625136981     
 C     0.74057013778019609       -1.8378571320705532        2.2595535441913057     
 O      10000000.000000000        10000000.000000000        10000000.000000000     
 H      10000000.000000000        10000000.000000000        10000000.000000000     
 H      10000000.000000000        10000000.000000000        10000000.000000000     
 M      10000000.000000000        10000000.000000000        10000000.000000000     
 O      10000000.000000000        10000000.000000000        10000000.000000000     
 H      10000000.000000000        10000000.000000000        10000000.000000000     
 H      10000000.000000000        10000000.000000000        10000000.000000000     
 M      10000000.000000000        10000000.000000000        10000000.000000000     
          16
                70000
 O      1.1025005179543541       -1.3812039391559665       0.38557307369603677     
 H      1.0938897171555482       -1.6900738043053707      -0.50748362131957947     
 C      1.5795219909513207       -2.3453858508786425        1.3277533937022099     
 C      1.7785369468625731       -1.7108906332382503        2.7167850226131804     
 O      10000000.000000000        10000000.000000000        10000000.000000000     
 H      10000000.000000000        10000000.000000000        10000000.000000000     
 C      10000000.000000000        10000000.000000000        10000000.000000000     
 C      10000000.000000000        10000000.000000000        10000000.000000000     
 O    -0.52699833802307694       0.58617864011728216        1.2339322263173926     
 H     -4.9377947934317490E-002 -0.21163432325420217        1.0067647144481953     
 H     0.15566862678997495        1.2404796444171780        1.3825520464110923     
 M    -0.37846755788098108       0.56780737790336389        1.2238771741035634     
 O    -0.57550217993116348       0.79502529903845698       -1.6195053000133157     
 H    -0.74088015135100704       0.78032090879867155      -0.67681460446283381     
 H     -1.4120324774237361       0.54807063987936999       -2.0137923752462257     
 M    -0.70375852624397339       0.76152978383242953       -1.5493030201952251     
          16
                75000
 O     0.64452112054243571       -1.0754790947448782       -1.0756115174374372     
 H     0.90014646057204573      -0.34479967588220006      -0.53358912640067047     
 C      1.7061323314432002       -2.0286989561348037      -0.97941623303381675     
 C      1.7973604180020857       -2.8392794149508518       -2.2856462112567897     
 O     0.80311276700911094        1.2570368336698721       0.34830721868399905     
 H     -5.0645174095507173E-003  0.88591116411282655       0.66790104582287313     
 C     0.38338589295051406        2.6077481416995170       0.13781181837043732     
 C     0.25981659795434098        2.7317895444205078       -1.3922026782097419     
 O     -1.4476338875512056      -0.18155773892499383       0.72730429875355185     
 H     -2.2952041694659329      -0.28300838138591189       0.29421744330761612     
 H    -0.87685195460767318      -0.81228959789643795       0.28842259817520244     
 M     -1.4830661356345445      -0.27528593279498637       0.61568180339679657     
 O      10000000.000000000        10000000.000000000        10000000.000000000     
 H      10000000.000000000        10000000.000000000        10000000.000000000     
 H      10000000.000000000        10000000.000000000        10000000.000000000     
 M      10000000.000000000        10000000.000000000        10000000.000000000     
          16
                80000
 O      0.0000000000000000        0.0000000000000000        0.0000000000000000     
 H     0.40136034361023576      -0.81702589220503796      -0.25377857680177840     
 C     0.93601824968857272        1.0439830100591507       0.28083680484871820     
 C     0.11781526282629784        1.9862636669504354        1.1831954009390984     
 O      10000000.000000000        10000000.000000000        10000000.000000000     
 H      10000000.000000000        10000000.000000000        10000000.000000000     
 C      10000000.000000000        10000000.000000000        10000000.000000000     
 C      10000000.000000000        10000000.000000000        10000000.000000000     
 O      10000000.000000000        10000000.000000000        10000000.000000000     
 H      10000000.000000000        10000000.000000000        10000000.000000000     
 H      10000000.000000000        10000000.000000000        10000000.000000000     
 M      10000000.000000000        10000000.000000000        10000000.000000000     
 O      10000000.000000000        10000000.000000000        10000000.000000000     
 H      10000000.000000000        10000000.000000000        10000000.000000000     
 H      10000000.000000000        10000000.000000000        10000000.000000000     
 M      10000000.000000000        10000000.000000000        10000000.000000000     
          16
                85000
 O     0.78309920431229330       0.23562396772183547      -0.99010259754220442     
 H     0.46065686509939496        6.6837260527677245E-002 -0.11799768105709063     
 C      1.3397528634191076        1.5448601772858410      -0.84540549539474341     
 C      2.2271416161573825        1.9636527727790281       -2.0323149121043116     
 O    -0.78309920431240698      -0.23562396772183547       0.99010259754209073     
 H     -1.2117922452304128      -0.96323495127069236       0.56603947336418514     
 C     -1.7055995179417778       0.46106090859007054        1.8318408908802439     
 C     -1.0645223982164680        1.6559866171096473        2.5617536786046458     
 O      10000000.000000000        10000000.000000000        10000000.000000000     
 H      10000000.000000000        10000000.000000000        10000000.000000000     
 H      10000000.000000000        10000000.000000000        10000000.000000000     
 M      10000000.000000000        10000000.000000000        10000000.000000000     
 O      10000000.000000000        10000000.000000000        10000000.000000000     
 H      10000000.000000000        10000000.000000000        10000000.000000000     
 H      10000000.000000000        10000000.000000000        10000000.000000000     
 M      10000000.000000000        10000000.000000000        10000000.000000000     
          16
                90000
 O     0.44555917687216606       -1.2873755564143039      -0.55034365359972526     
 H     0.24322516957124662      -0.67734776502788918       0.14244205874263116     
 C      1.8751434088793530       -1.2789897029997519      -0.51689815975106512     
 C      2.4386310597064949       -2.3716330806539645       -1.4443743678737633     
 O    -0.44555917687216606        1.2873755564143039       0.55034365359972526     
 H    -0.82810923272199943        1.5221701890842496      -0.28125236324905245     
 C     0.28713791729114746        2.2910625647230063        1.2579221704846759     
 C     0.10266755792315507        1.9619955637291469        2.7510014032689014     
 O      10000000.000000000        10000000.000000000        10000000.000000000     
 H      10000000.000000000        10000000.000000000        10000000.000000000     
 H      10000000.000000000        10000000.000000000        10000000.000000000     
 M      10000000.000000000        10000000.000000000        10000000.000000000     
 O      10000000.000000000        10000000.000000000        10000000.000000000     
 H      10000000.000000000        10000000.000000000        10000000.000000000     
 H      10000000.000000000        10000000.000000000        10000000.000000000     
 M      10000000.000000000        10000000.000000000        10000000.000000000     
          16
                95000
 O     -1.7212396890710124       0.64481488351157168       0.18216027848268368     
 H     -1.1185677189586158       0.54796265162906366       0.90356941456303730     
 C     -3.0230300499084706        1.0176729683685153       0.64174564050750860     
 C     -4.0364803989619986       0.63574691605697353      -0.45308351537443059     
 O     0.31644494467695949       0.41324255402446397        2.0308980941060213     
 H      1.0290622930180007        5.6702045002339219E-003   1.5628315446212468     
 C     0.87320084756527194       0.87476012006163728        3.2645610954309063     
 C     -8.0502807226480400E-002   1.8769423482692673        3.9410816940101085     
 O    -0.31015846806280933      -0.47244826076234858       -2.1257775468465638     
 H    -0.90716573525480726       -1.1575137988305642       -2.4266086813253764     
 H    -0.80484069934038871       -8.1705130583031860E-005  -1.4561573805002581     
 M    -0.44990789495773242      -0.49967629669902180       -2.0785681013769590     
 O      1.7149532124569760      -0.58560917677380075       -8.7280825742141133E-002
 H      2.4429681966990984      -0.24764846815344299      -0.60882524585218789     
 H      1.0790521472366663      -0.89270093252241622      -0.73346681197443786     
 M      1.7267449054327244      -0.58165757837605270      -0.23676440626854856     
          16
               100000
 O     -1.3083260543746746       0.59868238960291364       0.91973721536481889     
 H    -0.85838762250057243      -0.22013927849548054       0.77792225361804412     
 C     -2.7134916920657588       0.34737510930881399       0.83456573232354003     
 C     -3.3601912944184278        1.4917293075184261        1.6369578393118331     
 O      6.2565120695012411E-002  -1.3947279312088767       -7.0300851217552918E-004
 H     0.78047037809653830      -0.82841077987689005      -0.23928617116683881     
 C     -5.4655249469760747E-002  -2.5028671744404392      -0.89690990562280604     
 C    -0.50365552113612466       -3.7492312877620861      -0.11168684618854741     
 O      1.2457609336796622       0.79604554160584939      -0.91903420685264336     
 H     0.41495810205378802        1.1787553786092531      -0.63702059791893362     
 H      1.8784746340708125        1.0846622020580980      -0.26130657580262096     
 M      1.2204031349627940       0.88198343274700619      -0.79873599028007902     
 O      10000000.000000000        10000000.000000000        10000000.000000000     
 H      10000000.000000000        10000000.000000000        10000000.000000000     
 H      10000000.000000000        10000000.000000000        10000000.000000000     
 M      10000000.000000000        10000000.000000000        10000000.000000000     
          16
               100001
 O     -1.3083260543746746       0.59868238960291364       0.91973721536481889     
 H    -0.85838762250057243      -0.22013927849548054       0.77792225361804412     
 C     -2.7134916920657588       0.34737510930881399       0.83456573232354003     
 C     -3.3601912944184278        1.4917293075184261        1.6369578393118331     
 O      6.2565120695012411E-002  -1.3947279312088767       -7.0300851217552918E-004
 H     0.78047037809653830      -0.82841077987689005      -0.23928617116683881     
 C     -5.4655249469760747E-002  -2.5028671744404392      -0.89690990562280604     
 C    -0.50365552113612466       -3.7492312877620861      -0.11168684618854741     
 O      1.2457609336796622       0.79604554160584939      -0.91903420685264336     
 H     0.41495810205378802        1.1787553786092531      -0.63702059791893362     
 H      1.8784746340708125        1.0846622020580980      -0.26130657580262096     
 M      1.2204031349627940       0.88198343274700619      -0.79873599028007902     
 O      10000000.000000000        10000000.000000000        10000000.000000000     
 H      10000000.000000000        10000000.000000000        10000000.000000000     
 H      10000000.000000000        10000000.000000000        10000000.000000000     
 M      10000000.000000000        10000000.000000000        10000000.000000000     
