          16
           0
 O      25.404839635937208       -10.239603173367609       0.19094147737844114     
 H      25.793930522861704       -9.9066153500722685       0.98514069120916570     
 C      24.083896688806963       -9.7031954856267326       0.30174094921538142     
 C      23.372720707901109       -9.7259469445948206       -1.0640229744908432     
 O     -24.595160364062792       -10.239603173367609       0.19094147737844114     
 H     -24.206069477138300       -9.9066153500722685       0.98514069120916570     
 C     -25.916103311193041       -9.7031954856267326       0.30174094921538142     
 C     -26.627279292098891       -9.7259469445948206       -1.0640229744908432     
 O      25.404839635937208        9.7603968266323911       0.19094147737844114     
 H      25.681195743397268        9.4506536316102832      -0.67156550520649116     
 H      24.884916896689276        10.543338548297189        9.5180894464411692E-003
 M      25.373660168469257        9.8209719471215955        5.7305795069463872E-002
 O     -24.595160364062792        9.7603968266323911       0.19094147737844114     
 H     -24.318804256602732        9.4506536316102832      -0.67156550520649116     
 H     -25.115083103310724        10.543338548297189        9.5180894464411692E-003
 M     -24.626339831530743        9.8209719471215955        5.7305795069463872E-002
          16
                    0
 O      1.3777000631609440       0.59372992734932950       0.11288291494275882     
 H     0.50404047393436713       0.26765575714733814       -4.0151583388762901E-002
 C      1.9046782036452896       -3.8125008355905265E-002   1.2824783063823020     
 C      3.1364891475603827       0.78070956894725896        1.7111410333178014     
 O     -1.3777000631609440      -0.59372992734932950      -0.11288291494275882     
 H     -2.0997106082226082      -0.18102343045688940      -0.56165804821381471     
 C     -2.0423083054305380       -1.4812661623531085       0.79015380405752467     
 C     -2.2036522209912732      -0.79468371006271354        2.1591580688858016     
 O      10000000.000000000        10000000.000000000        10000000.000000000     
 H      10000000.000000000        10000000.000000000        10000000.000000000     
 H      10000000.000000000        10000000.000000000        10000000.000000000     
 M      10000000.000000000        10000000.000000000        10000000.000000000     
 O      10000000.000000000        10000000.000000000        10000000.000000000     
 H      10000000.000000000        10000000.000000000        10000000.000000000     
 H      10000000.000000000        10000000.000000000        10000000.000000000     
 M      10000000.000000000        10000000.000000000        10000000.000000000     
          16
                 5000
 O     0.50312397931512010      -0.36756011181735460        1.1580822097711518     
 H     0.62414313320249448       0.25728615811560474        1.8566138864639470     
 C     0.80078379374117503       -1.6442700757049664        1.7293179780717480     
 C      1.9983028868096540       -1.6061119477091808        2.6968364424972577     
 O      10000000.000000000        10000000.000000000        10000000.000000000     
 H      10000000.000000000        10000000.000000000        10000000.000000000     
 C      10000000.000000000        10000000.000000000        10000000.000000000     
 C      10000000.000000000        10000000.000000000        10000000.000000000     
 O    -0.50312397931509167       0.36756011181736881       -1.1580822097711376     
 H      8.3504542942392845E-002   5.1764250732176720E-002 -0.47078912018254471     
 H     -1.2804164110008287      -0.18601421266042450       -1.0832237905894431     
 M    -0.52753126005700324       0.25627023922744741       -1.0605176213911989     
 O      10000000.000000000        10000000.000000000        10000000.000000000     
 H      10000000.000000000        10000000.000000000        10000000.000000000     
 H      10000000.000000000        10000000.000000000        10000000.000000000     
 M      10000000.000000000        10000000.000000000        10000000.000000000     
          16
                10000
 O     -6.9629975230441232E-002   1.3076743320648916      -0.68098170684225501     
 H     0.17233697483243304       0.59342076337571825      -0.11149172914989158     
 C     0.48414339685399455        1.0252745231862974       -1.9688036667092099     
 C      2.0030197909855758        1.2785157984975086       -1.9468183118434670     
 O      6.9629975230412811E-002  -1.3076743320649058       0.68098170684225323     
 H     -2.5383625260559484E-002  -1.2786182603995968        1.6207439961586303     
 C     0.69135523134320920       -2.5572919995061056       0.36983320350297610     
 C      2.1346565223423966       -2.7020816029038457       0.88705400175851246     
 O      10000000.000000000        10000000.000000000        10000000.000000000     
 H      10000000.000000000        10000000.000000000        10000000.000000000     
 H      10000000.000000000        10000000.000000000        10000000.000000000     
 M      10000000.000000000        10000000.000000000        10000000.000000000     
 O      10000000.000000000        10000000.000000000        10000000.000000000     
 H      10000000.000000000        10000000.000000000        10000000.000000000     
 H      10000000.000000000        10000000.000000000        10000000.000000000     
 M      10000000.000000000        10000000.000000000        10000000.000000000     
          16
                15000
 O     0.76165153875507485       0.89807561585053008       -1.0826824542427786     
 H      4.3750274616314755E-002  0.91367905097922630      -0.46835411551814943     
 C     0.27372542192466653        1.5044021046780074       -2.2823475297788622     
 C     0.45121792705319308        3.0335522244115225       -2.2399644914002863     
 O     -1.2450853654875118       0.55002354462661174       0.52495576964915891     
 H     -1.0664385508534338      -0.31458317071076181       0.86195064114513453     
 C     -2.5709411664844879        1.0027920854042804       0.81132448903863530     
 C     -2.9892414861072041        2.1999746758450840       -6.2390961064542338E-002
 O     0.48343382673240853       -1.4480991604771134       0.55772668459362151     
 H     0.53541355045825867       -2.1968335765197935       -3.6349676285510668E-002
 H     0.94314871767579689      -0.74513835750911994        9.8662235376806962E-002
 M     0.54893691093926122       -1.4539587352030878       0.42291195489589128     
 O      10000000.000000000        10000000.000000000        10000000.000000000     
 H      10000000.000000000        10000000.000000000        10000000.000000000     
 H      10000000.000000000        10000000.000000000        10000000.000000000     
 M      10000000.000000000        10000000.000000000        10000000.000000000     
          16
                20000
 O    -0.34875003982233466       -1.2046319041165816       0.42075594647383241     
 H    -0.51600527539869745       -1.7343135118593977      -0.34376225513506142     
 C     0.30208566641010748       -2.0770199148032589        1.3482536781708063     
 C      1.7230992829581169       -2.3537794442339930       0.82315895866355504     
 O      10000000.000000000        10000000.000000000        10000000.000000000     
 H      10000000.000000000        10000000.000000000        10000000.000000000     
 C      10000000.000000000        10000000.000000000        10000000.000000000     
 C      10000000.000000000        10000000.000000000        10000000.000000000     
 O     0.34875003982239150        1.2046319041165816      -0.42075594647381820     
 H     -4.3894879182630575E-002  0.39535727682584820       -9.3438997319395867E-002
 H      1.2886354125088815        1.0244750526821065      -0.44052549605032709     
 M     0.41880342027843653        1.0779727374791150      -0.38138616880819143     
 O      10000000.000000000        10000000.000000000        10000000.000000000     
 H      10000000.000000000        10000000.000000000        10000000.000000000     
 H      10000000.000000000        10000000.000000000        10000000.000000000     
 M      10000000.000000000        10000000.000000000        10000000.000000000     
          16
                25000
 O      10000000.000000000        10000000.000000000        10000000.000000000     
 H      10000000.000000000        10000000.000000000        10000000.000000000     
 C      10000000.000000000        10000000.000000000        10000000.000000000     
 C      10000000.000000000        10000000.000000000        10000000.000000000     
 O      10000000.000000000        10000000.000000000        10000000.000000000     
 H      10000000.000000000        10000000.000000000        10000000.000000000     
 C      10000000.000000000        10000000.000000000        10000000.000000000     
 C      10000000.000000000        10000000.000000000        10000000.000000000     
 O      0.0000000000000000        0.0000000000000000        0.0000000000000000     
 H     -2.3475082124662094E-002  0.69444600387882360      -0.65835059673150909     
 H     0.91749326110922880       -4.4602598024425788E-002  0.26916270928172992     
 M     0.11444511312257077        8.3187796224166277E-002  -4.9820745094663721E-002
 O      10000000.000000000        10000000.000000000        10000000.000000000     
 H      10000000.000000000        10000000.000000000        10000000.000000000     
 H      10000000.000000000        10000000.000000000        10000000.000000000     
 M      10000000.000000000        10000000.000000000        10000000.000000000     
          16
                30000
 O      0.0000000000000000        0.0000000000000000        0.0000000000000000     
 H     0.60555008564571722       0.13655049866963509       0.71252231901010532     
 C     0.55202974017456086       -1.1419519812650378      -0.66038537116418183     
 C      1.9024990302323488      -0.73802837818135458       -1.2806098623628657     
 O      10000000.000000000        10000000.000000000        10000000.000000000     
 H      10000000.000000000        10000000.000000000        10000000.000000000     
 C      10000000.000000000        10000000.000000000        10000000.000000000     
 C      10000000.000000000        10000000.000000000        10000000.000000000     
 O      10000000.000000000        10000000.000000000        10000000.000000000     
 H      10000000.000000000        10000000.000000000        10000000.000000000     
 H      10000000.000000000        10000000.000000000        10000000.000000000     
 M      10000000.000000000        10000000.000000000        10000000.000000000     
 O      10000000.000000000        10000000.000000000        10000000.000000000     
 H      10000000.000000000        10000000.000000000        10000000.000000000     
 H      10000000.000000000        10000000.000000000        10000000.000000000     
 M      10000000.000000000        10000000.000000000        10000000.000000000     
          16
                35000
 O      0.0000000000000000        0.0000000000000000        0.0000000000000000     
 H    -0.65871549721927636       0.52531598825652281       0.42797430554324478     
 C    -0.52151992779769785      -0.67199524910341779       -1.1494952588385274     
 C    -0.68340135235612820       0.49689995696155620       -2.1389791655400643     
 O      10000000.000000000        10000000.000000000        10000000.000000000     
 H      10000000.000000000        10000000.000000000        10000000.000000000     
 C      10000000.000000000        10000000.000000000        10000000.000000000     
 C      10000000.000000000        10000000.000000000        10000000.000000000     
 O      10000000.000000000        10000000.000000000        10000000.000000000     
 H      10000000.000000000        10000000.000000000        10000000.000000000     
 H      10000000.000000000        10000000.000000000        10000000.000000000     
 M      10000000.000000000        10000000.000000000        10000000.000000000     
 O      10000000.000000000        10000000.000000000        10000000.000000000     
 H      10000000.000000000        10000000.000000000        10000000.000000000     
 H      10000000.000000000        10000000.000000000        10000000.000000000     
 M      10000000.000000000        10000000.000000000        10000000.000000000     
          16
                40000
 O      10000000.000000000        10000000.000000000        10000000.000000000     
 H      10000000.000000000        10000000.000000000        10000000.000000000     
 C      10000000.000000000        10000000.000000000        10000000.000000000     
 C      10000000.000000000        10000000.000000000        10000000.000000000     
 O      10000000.000000000        10000000.000000000        10000000.000000000     
 H      10000000.000000000        10000000.000000000        10000000.000000000     
 C      10000000.000000000        10000000.000000000        10000000.000000000     
 C      10000000.000000000        10000000.000000000        10000000.000000000     
 O    -0.85655306878851434       0.85271128506371952      -0.99484459889953314     
 H    -0.34648677521937543        1.4113971696766612       -1.5813037181053318     
 H     -1.0410453270603170        6.8060030588640075E-002  -1.5110973039652436     
 M    -0.81487566426324065       0.82378499147870343       -1.1360050164801123     
 O     0.85655306878851434      -0.85271128506377636       0.99484459889951893     
 H     0.20964768972828551       -1.4948457988315340        1.2870919885745309     
 H     0.34920498916241627       -5.7176110935529323E-002  0.83374353489384134     
 M     0.70879470015992752      -0.83307414977855387        1.0116329108475810     
          16
                45000
 O     0.72446365660579204       -1.8349990901317597       -9.5984562877362123E-002
 H      1.0779166220898730       -1.4451357504223097      -0.88090658291571344     
 C      1.6830876833909088       -2.7585154799589304       0.42656443290280777     
 C      2.7827938004098201       -3.0616138554632926      -0.60802622574337306     
 O      10000000.000000000        10000000.000000000        10000000.000000000     
 H      10000000.000000000        10000000.000000000        10000000.000000000     
 C      10000000.000000000        10000000.000000000        10000000.000000000     
 C      10000000.000000000        10000000.000000000        10000000.000000000     
 O     0.68089553680044901        1.7506075961490524      -0.29729615009324561     
 H     0.39882320608907662        2.6014436078756944        3.8479253111006528E-002
 H     -4.4137360890630362E-002   1.1598250513601442       -9.3494476798753112E-002
 M     0.55197391697262788        1.7838975774275241      -0.22822377437410069     
 O     -1.4053591934062126        8.4391493982650445E-002  0.39328071297052247     
 H    -0.72250748420361788      -0.57858713572767329       0.49528424127896642     
 H     -2.2058115579237949      -0.34771921229980762       0.69125418436274799     
 M     -1.4204134961235866       -5.5793153133890883E-002  0.44448259460159534     
          16
                50000
 O     0.53255450116954250      -0.87977005109570428       0.86037137051198442     
 H      1.0539051548466745       -1.5173161838785063       0.39695641123233827     
 C     0.20919288236204636       -1.4907302459478160        2.1121960003178515     
 C    -0.40132387320124963      -0.50755789767310944        3.1281888274403400     
 O      10000000.000000000        10000000.000000000        10000000.000000000     
 H      10000000.000000000        10000000.000000000        10000000.000000000     
 C      10000000.000000000        10000000.000000000        10000000.000000000     
 C      10000000.000000000        10000000.000000000        10000000.000000000     
 O    -0.53255450116955672       0.87977005109570428      -0.86037137051192758     
 H    -0.75705456549115979        1.6302769316708350      -0.31030684399746633     
 H    -0.33674042836780416       0.17759287501013432      -0.24001993601962113     
 M    -0.53622665417600501       0.88595683636168587      -0.71054400658789518     
 O      10000000.000000000        10000000.000000000        10000000.000000000     
 H      10000000.000000000        10000000.000000000        10000000.000000000     
 H      10000000.000000000        10000000.000000000        10000000.000000000     
 M      10000000.000000000        10000000.000000000        10000000.000000000     
          16
                55000
 O     0.56282979562408286      -0.39804010829476510        1.1710769182172953     
 H     0.80366514460121152       -1.2010264558191466        1.6072377376090685     
 C     0.77325392958042016       0.75785733968842806        1.9862595809344725     
 C    -0.32977742457279646        1.8288567795406152        1.8974787744996888     
 O      10000000.000000000        10000000.000000000        10000000.000000000     
 H      10000000.000000000        10000000.000000000        10000000.000000000     
 C      10000000.000000000        10000000.000000000        10000000.000000000     
 C      10000000.000000000        10000000.000000000        10000000.000000000     
 O    -0.56282979562408286       0.39804010829482195       -1.1710769182173522     
 H    -0.52601194648022442      -0.46825450469782481       -1.5765518613212066     
 H     -7.3937999453619341E-003  0.32360311745998160      -0.39507316236392853     
 M    -0.48701415802236170       0.27761511320153431       -1.1236447598032555     
 O      10000000.000000000        10000000.000000000        10000000.000000000     
 H      10000000.000000000        10000000.000000000        10000000.000000000     
 H      10000000.000000000        10000000.000000000        10000000.000000000     
 M      10000000.000000000        10000000.000000000        10000000.000000000     
          16
                60000
 O      10000000.000000000        10000000.000000000        10000000.000000000     
 H      10000000.000000000        10000000.000000000        10000000.000000000     
 C      10000000.000000000        10000000.000000000        10000000.000000000     
 C      10000000.000000000        10000000.000000000        10000000.000000000     
 O      10000000.000000000        10000000.000000000        10000000.000000000     
 H      10000000.000000000        10000000.000000000        10000000.000000000     
 C      10000000.000000000        10000000.000000000        10000000.000000000     
 C      10000000.000000000        10000000.000000000        10000000.000000000     
 O      1.3678440050798599       0.81499440212292029       -6.9846466010631048E-002
 H      1.9719135305498412       0.22873308806788373       0.38581735748414303     
 H      1.9088230282606560        1.2541406900825223      -0.72614218765528449     
 M      1.5144240341679165       0.79616190386002472       -9.5529769571214729E-002
 O     -1.3678440050798599      -0.81499440212292029        6.9846466010687891E-002
 H    -0.56890665972565557      -0.29571108812535840       0.16081787911872425     
 H     -1.6731640151991769      -0.63195782682322488      -0.81869680447340443     
 M     -1.3046550307420830      -0.72508898289498802       -3.2252354333422772E-002
          16
                65000
 O     -1.3645563671501009        1.3016599504396709E-002  0.44299220077277823     
 H    -0.43290570147098606       -1.3033292407158115E-002  0.28687224602299466     
 C     -1.5946688229984147      -0.67955402929533193        1.6727459085482792     
 C     -3.0328708898479135      -0.34157312862680556        2.1074224845137906     
 O      1.3645563671500440       -1.3016599504339865E-002 -0.44299220077277823     
 H      2.0137154008182847      -0.69912336968246791      -0.41341097492380641     
 C      1.9566129509437928       0.97119981560763335       0.40888047152651552     
 C      3.0914564598342622        1.6237762361328123      -0.40221399011392123     
 O      10000000.000000000        10000000.000000000        10000000.000000000     
 H      10000000.000000000        10000000.000000000        10000000.000000000     
 H      10000000.000000000        10000000.000000000        10000000.000000000     
 M      10000000.000000000        10000000.000000000        10000000.000000000     
 O      10000000.000000000        10000000.000000000        10000000.000000000     
 H      10000000.000000000        10000000.000000000        10000000.000000000     
 H      10000000.000000000        10000000.000000000        10000000.000000000     
 M      10000000.000000000        10000000.000000000        10000000.000000000     
          16
                70000
 O    -0.47967929586920377      -0.76787493562585496       0.99083750034083096     
 H     -6.3944984586214559E-002 -0.17418204464729570       0.38443933607629788     
 C     0.19998292202001267      -0.62595294510674648        2.2409644611655892     
 C      7.6761456109750270E-002  -1.9459976251750959        3.0244812210133034     
 O     0.47967929586923219       0.76787493562585496      -0.99083750034083096     
 H    -0.39789597287321499       0.99303623466357749       -1.2595176765862846     
 C      1.3562703484543022        1.8289747609161395       -1.3788520455535433     
 C      1.7109638704030203        2.7466482275895032      -0.19408712623345536     
 O      10000000.000000000        10000000.000000000        10000000.000000000     
 H      10000000.000000000        10000000.000000000        10000000.000000000     
 H      10000000.000000000        10000000.000000000        10000000.000000000     
 M      10000000.000000000        10000000.000000000        10000000.000000000     
 O      10000000.000000000        10000000.000000000        10000000.000000000     
 H      10000000.000000000        10000000.000000000        10000000.000000000     
 H      10000000.000000000        10000000.000000000        10000000.000000000     
 M      10000000.000000000        10000000.000000000        10000000.000000000     
          16
                75000
 O    -0.86821895594073339       0.11953365412409767       -1.2496455314308434     
 H      5.5056888027650075E-002   7.9507883494216003E-002  -1.0522002133555759     
 C    -0.97905750860707030        1.0274768250963007       -2.3488516147144765     
 C     -2.4679963010928532        1.1248842714095417       -2.7298674433013446     
 O      1.5620756924281523       -2.7098349193465765E-002 -0.12740013652117455     
 H      1.1687182033492718        1.6483750267639152E-002  0.73073475170573943     
 C      2.9875198531738079      -0.11911321342768133       -6.0004221539514901E-002
 C      3.4605485003776266      -0.36146498193761545       -1.5053794389915822     
 O    -0.69385673648741886       -9.2435304930518214E-002   1.3770456679520180     
 H    -0.78687568458798296       -7.9825305012036551E-002  0.42445955468082275     
 H     -1.5800320632352509      -0.25027562241098167        1.7026398393374222     
 M    -0.81920541751884457      -0.11102653776231364        1.2967831348153709     
 O      10000000.000000000        10000000.000000000        10000000.000000000     
 H      10000000.000000000        10000000.000000000        10000000.000000000     
 H      10000000.000000000        10000000.000000000        10000000.000000000     
 M      10000000.000000000        10000000.000000000        10000000.000000000     
          16
                80000
 O    -0.30858428668676652        1.3479397468074694       0.59384770902863693     
 H     0.53128553707884407       0.95266582770034347       0.41664102743436615     
 C    -0.46527159285778907        1.7139326565057900        1.9673098592663223     
 C    -0.19324673680489468       0.42477607816852014        2.7646039042832058     
 O      9.3851316244752070E-002  -1.4693531082311893      -0.15673850336270334     
 H    -0.71203737731937622       -1.0364497032180680      -0.39372596191998355     
 C     -7.8320587415646514E-002  -2.7391277147277151      -0.79150561363735505     
 C      1.0815325041126300       -3.6643514881766350      -0.37882925725443783     
 O      2.2733755389645864        5.0419952160154935E-002  0.57321699552244354     
 H      2.8824319991698815        7.4344205195416180E-002 -0.16482751424592834     
 H      1.6498360195979842      -0.63986559574186685       0.34752656562938000     
 M      2.2715215326550151       -3.4882333144537370E-002  0.44984729591004680     
 O     -2.0586425685226004        7.0993409263451213E-002  -1.0103262011882634     
 H     -1.6482217076267602       0.66700624261761732      -0.38378389661528445     
 H     -2.9076139661120521       0.47012302688381169       -1.2005233473608428     
 M     -2.1147823282746288       0.19838364925124097      -0.95446875646536000     
          16
                85000
 O      0.0000000000000000        0.0000000000000000        0.0000000000000000     
 H     -5.5041229543697057E-002 -0.24352974346152223      -0.91142126763637066     
 C      1.3232901320634411       0.36977772304686596       0.39631762756880562     
 C      2.2199377328802612        5.8477066728528371E-003 -0.80167153061731256     
 O      10000000.000000000        10000000.000000000        10000000.000000000     
 H      10000000.000000000        10000000.000000000        10000000.000000000     
 C      10000000.000000000        10000000.000000000        10000000.000000000     
 C      10000000.000000000        10000000.000000000        10000000.000000000     
 O      10000000.000000000        10000000.000000000        10000000.000000000     
 H      10000000.000000000        10000000.000000000        10000000.000000000     
 H      10000000.000000000        10000000.000000000        10000000.000000000     
 M      10000000.000000000        10000000.000000000        10000000.000000000     
 O      10000000.000000000        10000000.000000000        10000000.000000000     
 H      10000000.000000000        10000000.000000000        10000000.000000000     
 H      10000000.000000000        10000000.000000000        10000000.000000000     
 M      10000000.000000000        10000000.000000000        10000000.000000000     
          16
                90000
 O     0.98707627417158506        1.0140161476080038       0.22960083309852308     
 H     0.72089967951605161       0.17632301008825380      -0.11745136443081350     
 C     0.55749480137494345        2.1002418234763809      -0.59530736743904811     
 C     0.35528791088343326        3.2885923017369123       0.36309521720675519     
 O    -0.98707627417157084       -1.0140161476080038      -0.22960083309853019     
 H     -1.7457628445761060      -0.45108856983063106      -0.25267094505043275     
 C     -1.3819872952837500       -2.1657018149938949      -0.97964443779236632     
 C     -2.5948280541351920       -2.8495685849999290      -0.32165998922985750     
 O      10000000.000000000        10000000.000000000        10000000.000000000     
 H      10000000.000000000        10000000.000000000        10000000.000000000     
 H      10000000.000000000        10000000.000000000        10000000.000000000     
 M      10000000.000000000        10000000.000000000        10000000.000000000     
 O      10000000.000000000        10000000.000000000        10000000.000000000     
 H      10000000.000000000        10000000.000000000        10000000.000000000     
 H      10000000.000000000        10000000.000000000        10000000.000000000     
 M      10000000.000000000        10000000.000000000        10000000.000000000     
          16
                95000
 O      1.2849406598071589       0.90726664155664594       -1.0464692324015203     
 H     0.41652104751629793       0.53736188499453874       -1.0916671091354289     
 C      1.0538987007293663        2.3096124539491711       -1.2044117396965106     
 C      2.2655788723395744        3.2270958615057452      -0.95610676877363687     
 O      10000000.000000000        10000000.000000000        10000000.000000000     
 H      10000000.000000000        10000000.000000000        10000000.000000000     
 C      10000000.000000000        10000000.000000000        10000000.000000000     
 C      10000000.000000000        10000000.000000000        10000000.000000000     
 O     0.45079666747427538      -0.59403786430033279        1.3829012574297366     
 H     0.93634626675737920        7.7529677541861020E-003  0.81870162867053864     
 H      1.0944925395406422       -1.2542514345308291        1.6398166247538342     
 M     0.59535371200544063      -0.60151667965038769        1.3435651646213387     
 O     -1.7357373272814236      -0.31322877725625631      -0.33643202502820202     
 H     -2.4154269597760809      -0.95562668382547145      -0.13252328780654921     
 H     -1.1170961716920900      -0.37929287645920340       0.39099528777134651     
 M     -1.7435522688671874      -0.40392046149554517      -0.21720977417754739     
          16
               100000
 O      1.6772474058557094       0.71995852224262080       -9.2052263610305829E-002
 H      1.7102371493957662       0.18877718499857110       0.68883381244995689     
 C      2.8813425031636370       0.43141564226948503      -0.80745285282995383     
 C      2.9114018163045472        1.1079908558505736       -2.1905444687618996     
 O      10000000.000000000        10000000.000000000        10000000.000000000     
 H      10000000.000000000        10000000.000000000        10000000.000000000     
 C      10000000.000000000        10000000.000000000        10000000.000000000     
 C      10000000.000000000        10000000.000000000        10000000.000000000     
 O    -0.88694773451376818       0.47137007048763735       -1.2037759665341525     
 H     -2.0031890536273522E-002  0.67934031073849610      -0.85529764779479933     
 H     -1.3261254710533734        1.3187871858921767       -1.2761568220602442     
 M    -0.83219209615816681       0.60647238512177637       -1.1684321601626166     
 O    -0.79029967134194123       -1.1913285927300876        1.2958282301444584     
 H     -1.5988129620912588       -1.6955047038224507        1.2044797343368359     
 H    -0.63155858756292105      -0.83210579454629396       0.42290664742078121     
 M    -0.87347835324995060       -1.2098843656254985        1.1723900262999720     
          16
               100001
 O      1.6772474058557094       0.71995852224262080       -9.2052263610305829E-002
 H      1.7102371493957662       0.18877718499857110       0.68883381244995689     
 C      2.8813425031636370       0.43141564226948503      -0.80745285282995383     
 C      2.9114018163045472        1.1079908558505736       -2.1905444687618996     
 O      10000000.000000000        10000000.000000000        10000000.000000000     
 H      10000000.000000000        10000000.000000000        10000000.000000000     
 C      10000000.000000000        10000000.000000000        10000000.000000000     
 C      10000000.000000000        10000000.000000000        10000000.000000000     
 O    -0.88694773451376818       0.47137007048763735       -1.2037759665341525     
 H     -2.0031890536273522E-002  0.67934031073849610      -0.85529764779479933     
 H     -1.3261254710533734        1.3187871858921767       -1.2761568220602442     
 M    -0.83219209615816681       0.60647238512177637       -1.1684321601626166     
 O    -0.79029967134194123       -1.1913285927300876        1.2958282301444584     
 H     -1.5988129620912588       -1.6955047038224507        1.2044797343368359     
 H    -0.63155858756292105      -0.83210579454629396       0.42290664742078121     
 M    -0.87347835324995060       -1.2098843656254985        1.1723900262999720     
