          16
           0
 O      25.404839635937208       -10.239603173367609       0.19094147737844114     
 H      25.793930522861704       -9.9066153500722685       0.98514069120916570     
 C      24.083896688806963       -9.7031954856267326       0.30174094921538142     
 C      23.372720707901109       -9.7259469445948206       -1.0640229744908432     
 O     -24.595160364062792       -10.239603173367609       0.19094147737844114     
 H     -24.206069477138300       -9.9066153500722685       0.98514069120916570     
 C     -25.916103311193041       -9.7031954856267326       0.30174094921538142     
 C     -26.627279292098891       -9.7259469445948206       -1.0640229744908432     
 O      25.404839635937208        9.7603968266323911       0.19094147737844114     
 H      25.681195743397268        9.4506536316102832      -0.67156550520649116     
 H      24.884916896689276        10.543338548297189        9.5180894464411692E-003
 M      25.373660168469257        9.8209719471215955        5.7305795069463872E-002
 O     -24.595160364062792        9.7603968266323911       0.19094147737844114     
 H     -24.318804256602732        9.4506536316102832      -0.67156550520649116     
 H     -25.115083103310724        10.543338548297189        9.5180894464411692E-003
 M     -24.626339831530743        9.8209719471215955        5.7305795069463872E-002
          16
                    0
 O      1.3777000631609440       0.59372992734932950       0.11288291494275882     
 H     0.50404047393436713       0.26765575714733814       -4.0151583388762901E-002
 C      1.9046782036452896       -3.8125008355905265E-002   1.2824783063823020     
 C      3.1364891475603827       0.78070956894725896        1.7111410333178014     
 O     -1.3777000631609440      -0.59372992734932950      -0.11288291494275882     
 H     -2.0997106082226082      -0.18102343045688940      -0.56165804821381471     
 C     -2.0423083054305380       -1.4812661623531085       0.79015380405752467     
 C     -2.2036522209912732      -0.79468371006271354        2.1591580688858016     
 O      10000000.000000000        10000000.000000000        10000000.000000000     
 H      10000000.000000000        10000000.000000000        10000000.000000000     
 H      10000000.000000000        10000000.000000000        10000000.000000000     
 M      10000000.000000000        10000000.000000000        10000000.000000000     
 O      10000000.000000000        10000000.000000000        10000000.000000000     
 H      10000000.000000000        10000000.000000000        10000000.000000000     
 H      10000000.000000000        10000000.000000000        10000000.000000000     
 M      10000000.000000000        10000000.000000000        10000000.000000000     
          16
                 5000
 O    -0.82943723803322200        1.4748180023069466       -3.9815240217961900E-003
 H      5.2482649468373666E-002   1.1461163899605467        8.0856922864427361E-002
 C    -0.71978218294839280        2.7731065817886744      -0.59332228562045941     
 C     -2.1455788023008608        3.3239003796629234      -0.78128555986920389     
 O    -0.70108085373715312       -1.3732444526848298      -0.44050980282112562     
 H     -1.1379064515160735      -0.56025724660656095      -0.23738373389312528     
 C     -1.5377196305128109       -2.0232585367016043       -1.4009353583823980     
 C    -0.79217914428312497       -2.8547228606423261       -2.4613298422449787     
 O      1.5305180917703751      -0.10157354962213105       0.44449132684289339     
 H      2.1811888809644131      -0.37435970965168508      -0.20238352580382468     
 H     0.80810788659363197      -0.71968497745226756       0.33361482689090849     
 M      1.5213345809971486      -0.21561918943041292       0.34749001153915060     
 O      10000000.000000000        10000000.000000000        10000000.000000000     
 H      10000000.000000000        10000000.000000000        10000000.000000000     
 H      10000000.000000000        10000000.000000000        10000000.000000000     
 M      10000000.000000000        10000000.000000000        10000000.000000000     
          16
                10000
 O     0.82458634727913704       0.72940794742956427       -1.1450034816914467     
 H     0.88642858685568626       0.91409406429364282      -0.22029186413607249     
 C      2.0713858458748291        1.0365778675430732       -1.7743187051518134     
 C      2.3857580881948479       0.12205145662547068       -2.9728225795689696     
 O      10000000.000000000        10000000.000000000        10000000.000000000     
 H      10000000.000000000        10000000.000000000        10000000.000000000     
 C      10000000.000000000        10000000.000000000        10000000.000000000     
 C      10000000.000000000        10000000.000000000        10000000.000000000     
 O     0.35677370095669403       0.37404932470312247        1.6067444746051365     
 H    -0.29898874719373225        1.8338009241432474E-002   1.0070137753332347     
 H     0.40039518041396605      -0.26293920655673020        2.3198886518741233     
 M     0.27841227156289960       0.24697176752954419        1.6212627681083518     
 O     -1.1813600482357742       -1.1034572721326796      -0.46174099291374660     
 H     -2.0146202518840255      -0.96526393622021800      -0.91208738728880689     
 H    -0.54634477219110522      -0.60138422588276086      -0.97253458666602910     
 M     -1.2067377907674199       -1.0214954504864835      -0.58477850742252713     
          16
                15000
 O    -0.53891231957243235       -1.4650318812924183      -0.40791138031784158     
 H    -0.20644263962446985      -0.84532382499835990       -1.0391410032598287     
 C    -0.68041394822012080       -2.6874038201989663       -1.1363920815473989     
 C     -2.1017838825453623       -3.2570565743057216      -0.97267510156393655     
 O     0.67902985340106170       0.95309671679353869       -1.1332835491982394     
 H     0.38186369807868914        1.2236783580756878      -0.27800414950948493     
 C     0.72643525930476471        2.0036007870508001       -2.1023521359680331     
 C      1.4085453292399848        1.4285914678797553       -3.3576171021641699     
 O    -0.14011753382868619       0.51193516449887966        1.5411949295161094     
 H    -0.63873327016136727      -0.17702320317968656        1.1019335550614358     
 H     0.31754198601316830        6.1542035106157300E-002   2.2510721251586006     
 M    -0.14536042367120672       0.36608442674750563        1.5758370195733846     
 O      10000000.000000000        10000000.000000000        10000000.000000000     
 H      10000000.000000000        10000000.000000000        10000000.000000000     
 H      10000000.000000000        10000000.000000000        10000000.000000000     
 M      10000000.000000000        10000000.000000000        10000000.000000000     
          16
                20000
 O     0.77374181132890385       0.46220345903665816      -0.93581361404918084     
 H     -7.2413685002317152E-002  0.39277303887584480      -0.52081326129663807     
 C     0.92820329105995825        1.7699030814239904       -1.4934544921125621     
 C      2.4303830950778718        2.0810745893755325       -1.6284660806518616     
 O    -0.77374181132890385      -0.46220345903662974       0.93581361404918084     
 H    -0.22442551331104710      -0.81520656165653804        1.6189427484540033     
 C     -2.1114054192992455      -0.93889508425795043        1.1041025511651412     
 C     -3.2534998600058600      -0.16392331681197447       0.42099271507092340     
 O      10000000.000000000        10000000.000000000        10000000.000000000     
 H      10000000.000000000        10000000.000000000        10000000.000000000     
 H      10000000.000000000        10000000.000000000        10000000.000000000     
 M      10000000.000000000        10000000.000000000        10000000.000000000     
 O      10000000.000000000        10000000.000000000        10000000.000000000     
 H      10000000.000000000        10000000.000000000        10000000.000000000     
 H      10000000.000000000        10000000.000000000        10000000.000000000     
 M      10000000.000000000        10000000.000000000        10000000.000000000     
          16
                25000
 O     0.98824014297022700      -0.87677447660223606      -0.19443455516096719     
 H      1.2708851064840871      -0.93818658872324079       -1.0940819177898504     
 C      1.7022506512080611       -1.8596713821957849       0.55988809934481765     
 C      2.9714371500054710       -2.2665429902290981      -0.21161765296474755     
 O      10000000.000000000        10000000.000000000        10000000.000000000     
 H      10000000.000000000        10000000.000000000        10000000.000000000     
 C      10000000.000000000        10000000.000000000        10000000.000000000     
 C      10000000.000000000        10000000.000000000        10000000.000000000     
 O    -0.98824014297019858       0.87677447660222185       0.19443455516096719     
 H    -0.38198249873116197       0.17205508313917051       -3.3719088858873647E-002
 H    -0.56770572496060367        1.3274315075214673       0.92675339538814683     
 M    -0.85679837089114130       0.84425142896741079       0.25897378296326679     
 O      10000000.000000000        10000000.000000000        10000000.000000000     
 H      10000000.000000000        10000000.000000000        10000000.000000000     
 H      10000000.000000000        10000000.000000000        10000000.000000000     
 M      10000000.000000000        10000000.000000000        10000000.000000000     
          16
                30000
 O      0.0000000000000000        0.0000000000000000        0.0000000000000000     
 H    -0.44704791013941758       0.51647522603187213      -0.65301340486644222     
 C    -0.97574384884117649      -0.66618817030075661       0.80561607680078851     
 C     -2.1564781645895721      -0.96454771091629254      -0.13695915103937750     
 O      10000000.000000000        10000000.000000000        10000000.000000000     
 H      10000000.000000000        10000000.000000000        10000000.000000000     
 C      10000000.000000000        10000000.000000000        10000000.000000000     
 C      10000000.000000000        10000000.000000000        10000000.000000000     
 O      10000000.000000000        10000000.000000000        10000000.000000000     
 H      10000000.000000000        10000000.000000000        10000000.000000000     
 H      10000000.000000000        10000000.000000000        10000000.000000000     
 M      10000000.000000000        10000000.000000000        10000000.000000000     
 O      10000000.000000000        10000000.000000000        10000000.000000000     
 H      10000000.000000000        10000000.000000000        10000000.000000000     
 H      10000000.000000000        10000000.000000000        10000000.000000000     
 M      10000000.000000000        10000000.000000000        10000000.000000000     
          16
                35000
 O      10000000.000000000        10000000.000000000        10000000.000000000     
 H      10000000.000000000        10000000.000000000        10000000.000000000     
 C      10000000.000000000        10000000.000000000        10000000.000000000     
 C      10000000.000000000        10000000.000000000        10000000.000000000     
 O      10000000.000000000        10000000.000000000        10000000.000000000     
 H      10000000.000000000        10000000.000000000        10000000.000000000     
 C      10000000.000000000        10000000.000000000        10000000.000000000     
 C      10000000.000000000        10000000.000000000        10000000.000000000     
 O      0.0000000000000000        0.0000000000000000        0.0000000000000000     
 H    -0.93088738120343351      -0.19589504819933268      -0.10632804713708310     
 H     0.42409906319170432      -0.85767503397451605        2.7665153094005746E-002
 M     -6.4875019039732251E-002 -0.13486968170323621       -1.0069799494260678E-002
 O      10000000.000000000        10000000.000000000        10000000.000000000     
 H      10000000.000000000        10000000.000000000        10000000.000000000     
 H      10000000.000000000        10000000.000000000        10000000.000000000     
 M      10000000.000000000        10000000.000000000        10000000.000000000     
          16
                40000
 O    -0.91507569241213105       -1.4002283051315203       0.20289025860483889     
 H    -0.64812731691517911       -1.0754613837045497      -0.64344892373662788     
 C     -2.3076931934852496       -1.1630468081932577       0.42483942669321095     
 C     -3.1193110727317048       -1.9733583148752416      -0.60291136032969916     
 O     0.51567218851340613        1.5687330810819446      -0.21056876612800579     
 H     0.45765881089511140        1.2337513455167368       0.67116060553604484     
 C     0.38167946261455654        2.9888505971836992      -0.31162414632689206     
 C      1.3949705415556082        3.7911174231395677       0.52575816140904408     
 O     0.51681688312999086       -4.9490951082731272E-002   2.3073648411463523     
 H     0.21294922220261014      -0.88224559542334191        1.9462333042062596     
 H      1.4675888387591840       -7.3708696430003329E-002   2.1992999106724938     
 M     0.59962843766777496      -0.15919375622237908        2.2473020325243738     
 O    -0.11741337923126594      -0.11901382486760781       -2.2996863336231286     
 H     0.80878264046845061      -0.36064665390509276       -2.2971666064756846     
 H    -0.15070615566344259       0.70904855454764970       -1.8206914204622535     
 M     -3.1109913329032679E-003  -4.3943767223510122E-002  -2.2380466502519312     
          16
                45000
 O      0.0000000000000000        0.0000000000000000        0.0000000000000000     
 H     0.37955292380803485       0.51015777342675506      -0.69907340404358820     
 C     -1.2968074303435060       0.54212701010069964       0.26322764582232594     
 C     -1.4983982368131024       0.83887090013035959        1.7608605148783454     
 O      10000000.000000000        10000000.000000000        10000000.000000000     
 H      10000000.000000000        10000000.000000000        10000000.000000000     
 C      10000000.000000000        10000000.000000000        10000000.000000000     
 C      10000000.000000000        10000000.000000000        10000000.000000000     
 O      10000000.000000000        10000000.000000000        10000000.000000000     
 H      10000000.000000000        10000000.000000000        10000000.000000000     
 H      10000000.000000000        10000000.000000000        10000000.000000000     
 M      10000000.000000000        10000000.000000000        10000000.000000000     
 O      10000000.000000000        10000000.000000000        10000000.000000000     
 H      10000000.000000000        10000000.000000000        10000000.000000000     
 H      10000000.000000000        10000000.000000000        10000000.000000000     
 M      10000000.000000000        10000000.000000000        10000000.000000000     
          16
                50000
 O      5.7659483359316255E-002  0.99029260291314358        1.1499819166252792     
 H    -0.56841200414231707        1.2951570622784629       0.51114144048631260     
 C    -0.10397726702802856        1.5793819855073252        2.4429425735050927     
 C      1.1129017028235353        1.9619837390832231        3.3057412005864535     
 O      10000000.000000000        10000000.000000000        10000000.000000000     
 H      10000000.000000000        10000000.000000000        10000000.000000000     
 C      10000000.000000000        10000000.000000000        10000000.000000000     
 C      10000000.000000000        10000000.000000000        10000000.000000000     
 O     0.82633770246968652       -1.6286474855598385        6.5730346765121794E-002
 H     0.63767803815551360      -0.83133283283973469       0.56063308025863989     
 H     0.24554826678428299       -2.2888974274918041       0.44386456311463007     
 M     0.72783893436769631       -1.6111015489117335       0.17748960942185477     
 O    -0.88399718582888909       0.63835488264663809       -1.2157122633901736     
 H     -8.6962044373080971E-002  0.15671641118035495      -0.99437269149018448     
 H     -1.0185286560660529       0.46454063771250276       -2.1473354338689887     
 M    -0.79918872289283627       0.55444902699701970       -1.3066371334872429     
          16
                55000
 O    -0.47991155079654391       -1.4444474455689829      -0.62337801944227067     
 H    -0.89454745224605858      -0.82730910091197529       -4.0075068324199492E-002
 C     -1.5724312959575855       -2.2735858277210923       -1.0281373920025771     
 C     -1.3132964716045876       -2.6778358580543227       -2.4913636410095705     
 O    -0.98094974779820632       0.82672925463447200       0.77884050339571331     
 H    -0.11699270621363667        1.1154252149070771       0.52732932507808528     
 C     -1.8575868643482067        1.8480880621705182        1.2617831005596827     
 C     -1.3799226778781417        2.2986047570402661        2.6547912242285747     
 O      1.4608612985945797       0.61771819093468139      -0.15546248395332896     
 H      1.1087861724572576      -0.20785084558337985      -0.48819467581108711     
 H      1.2791544573326519        1.2526960519958834      -0.84829549399182724     
 M      1.3925307667589095       0.59332022101881421      -0.28674720310596058     
 O      10000000.000000000        10000000.000000000        10000000.000000000     
 H      10000000.000000000        10000000.000000000        10000000.000000000     
 H      10000000.000000000        10000000.000000000        10000000.000000000     
 M      10000000.000000000        10000000.000000000        10000000.000000000     
          16
                60000
 O     0.18814089412916246        1.1308706619414579      -0.82886399127062305     
 H    -0.56243351730188351       0.77322677473011936      -0.37969375311445219     
 C     -5.9716511525493843E-003   2.5372157720902919       -1.0003683670887540     
 C    -0.12499364535653967        3.2558712665034477       0.35645440882763069     
 O     -1.6610655527567246      -0.13449746454301703       0.55483702175502003     
 H     -1.4016996941743400      -0.68588330332511305        1.2771444412048822     
 C     -2.9734782105429076      -0.46299887331724676        9.1630976764349725E-002
 C     -3.3213772631526695       0.36463025310774810       -1.1596069215930811     
 O      1.4729246586276190      -0.99637319739855457       0.27402696951571670     
 H      2.3783704877287732      -0.75139283521195921       0.46477369349133824     
 H      1.0945148092827139      -0.21764184553387622      -0.13415841427615760     
 M      1.5403916226558749      -0.86532574705194065       0.24619219769078882     
 O      10000000.000000000        10000000.000000000        10000000.000000000     
 H      10000000.000000000        10000000.000000000        10000000.000000000     
 H      10000000.000000000        10000000.000000000        10000000.000000000     
 M      10000000.000000000        10000000.000000000        10000000.000000000     
          16
                65000
 O      1.7403491843335814       0.37632416172186822        1.1508234740077796     
 H      2.0451860248429625       0.25011054806299171        2.0363569992881594     
 C      2.7198470594273658        1.0006645857099556       0.31674736976958684     
 C      2.1644899420846855        1.8561892568131952      -0.83705331030932939     
 O      10000000.000000000        10000000.000000000        10000000.000000000     
 H      10000000.000000000        10000000.000000000        10000000.000000000     
 C      10000000.000000000        10000000.000000000        10000000.000000000     
 C      10000000.000000000        10000000.000000000        10000000.000000000     
 O      1.6678904056220745E-002  -1.2857402660503681       -3.3610049402454933E-002
 H     0.69425008240591524      -0.80099828339413648       0.43772247495917327     
 H     0.20286663393136450       -1.1210888987487238      -0.95797788554182262     
 M     0.12725046544636598       -1.2026100824096204       -9.1604035122031746E-002
 O     -1.7570280883898590       0.90941610432852826       -1.1172134246053247     
 H     -2.1847588152011213       0.14850218181510400       -1.5100088775670883     
 H     -1.3820717847894457       0.57909354767227228      -0.30080260954127880     
 M     -1.7637838512777080       0.76972466937004924       -1.0629855473916905     
          16
                70000
 O     -9.4603774270467511E-002   1.5258417266956599       0.22495592379664231     
 H    -0.54685356477659752       0.76233141652602399       0.54983610671308725     
 C     0.67590487503559871        2.0770390336539322        1.2961225542264856     
 C      1.5836392653329767        3.2144813865931496       0.79229404132604486     
 O      10000000.000000000        10000000.000000000        10000000.000000000     
 H      10000000.000000000        10000000.000000000        10000000.000000000     
 C      10000000.000000000        10000000.000000000        10000000.000000000     
 C      10000000.000000000        10000000.000000000        10000000.000000000     
 O    -0.74058125984640810       -1.0464569995226043       0.98072462976438146     
 H     -1.4850961402293024       -1.5824029898258232       0.70742748677298550     
 H    -0.13521264539519962       -1.0811119012585664       0.24007645524261534     
 M    -0.75839366066645653       -1.1195007979293337       0.85092739600543155     
 O     0.83518503411687561      -0.47938472717299874       -1.2056805535612511     
 H     0.63322371066919914       0.39153425415457832      -0.86371039141977235     
 H      1.7598234257826562      -0.43323536384025374       -1.4488798975565942     
 M     0.92769641785287149      -0.36198891474725770       -1.1930366971828334     
          16
                75000
 O     0.94252740094702858       0.87621107061721659      -0.35721382393887779     
 H      1.5988221552372579        1.1809452582215272       0.25060133743522783     
 C      1.4900063686927751       0.77646743016066466       -1.6744905549504665     
 C      2.1117121236509320      -0.61126105844073209       -1.9179892123923992     
 O      10000000.000000000        10000000.000000000        10000000.000000000     
 H      10000000.000000000        10000000.000000000        10000000.000000000     
 C      10000000.000000000        10000000.000000000        10000000.000000000     
 C      10000000.000000000        10000000.000000000        10000000.000000000     
 O    -0.94252740094702858      -0.87621107061727344       0.35721382393887779     
 H    -0.19898350808023224      -0.43681605267266832       -5.5468060309635803E-002
 H     -1.4191320151775244      -0.17509397352381484       0.80164008087740513     
 M    -0.90835595269413716      -0.73021175976322183       0.36127748663579951     
 O      10000000.000000000        10000000.000000000        10000000.000000000     
 H      10000000.000000000        10000000.000000000        10000000.000000000     
 H      10000000.000000000        10000000.000000000        10000000.000000000     
 M      10000000.000000000        10000000.000000000        10000000.000000000     
          16
                80000
 O    -0.77003940046915886       0.26713600798484549       -1.2815759022479369     
 H      1.9548975502402755E-002  0.53887227647396685      -0.83915687359069580     
 C     -1.6967005074370718        1.3525611545946958       -1.3713057408742770     
 C     -1.0986190213251348        2.5709707090106804       -2.0988885153253705     
 O      10000000.000000000        10000000.000000000        10000000.000000000     
 H      10000000.000000000        10000000.000000000        10000000.000000000     
 C      10000000.000000000        10000000.000000000        10000000.000000000     
 C      10000000.000000000        10000000.000000000        10000000.000000000     
 O    -0.73957065596869143       -1.2066678354036071       0.87803347040903645     
 H     -1.5415308801867695       -1.2377096995410852        1.3996924025128692     
 H     -1.0262398712189906      -0.90884236861029422        1.4695418220526335E-002
 M    -0.87892835839215877       -1.1725163155550149       0.83429442072360871     
 O      1.5096100564378503       0.93953182741870478       0.40354243183878680     
 H      2.3869512467434788        1.0439833955272775       0.77177353551337546     
 H      1.1987241219655971       0.10601279589076285       0.75685221068329156     
 M      1.5821231633926800       0.84620239599701108       0.49590837009691313     
          16
                85000
 O     0.31232710259257601       -1.1480223665010953      -0.78587380694511921     
 H     0.12349895816385015      -0.43190272844003630      -0.19889714995201757     
 C      1.1140594154198880E-002  -2.3159047908017101       -1.7604758925813258E-002
 C     0.89156137443217176       -2.5198095286825719        1.2293443609360111     
 O    -0.31232710259257601        1.1480223665011522       0.78587380694523290     
 H     0.30814568464290915        1.8391172628687400       0.96030535373427028     
 C     -1.5054058770696201        1.5087665950682663        1.4868207660283588     
 C     -2.3232068167604893       0.24487846743204500        1.8114565987099240     
 O      10000000.000000000        10000000.000000000        10000000.000000000     
 H      10000000.000000000        10000000.000000000        10000000.000000000     
 H      10000000.000000000        10000000.000000000        10000000.000000000     
 M      10000000.000000000        10000000.000000000        10000000.000000000     
 O      10000000.000000000        10000000.000000000        10000000.000000000     
 H      10000000.000000000        10000000.000000000        10000000.000000000     
 H      10000000.000000000        10000000.000000000        10000000.000000000     
 M      10000000.000000000        10000000.000000000        10000000.000000000     
          16
                90000
 O    -0.60561947132714522       0.91642206131444937       -1.0911046196979441     
 H    -0.10532503289755368       0.50302138707985478      -0.40420553146248039     
 C     -1.8369631993075473        1.4102700172487062      -0.55743166742979611     
 C     -2.6655667473842186       0.17268668018630251      -0.16576389502540678     
 O     0.60561947132703153      -0.91642206131444937        1.0911046196979441     
 H     0.17888461839470438       -1.0865219848457741        1.9169304980206334     
 C      1.9999872809100907       -1.1754468467625543        1.2742563931608402     
 C      2.2856221489736299       -2.6411598804833716        1.6506843742234878     
 O      10000000.000000000        10000000.000000000        10000000.000000000     
 H      10000000.000000000        10000000.000000000        10000000.000000000     
 H      10000000.000000000        10000000.000000000        10000000.000000000     
 M      10000000.000000000        10000000.000000000        10000000.000000000     
 O      10000000.000000000        10000000.000000000        10000000.000000000     
 H      10000000.000000000        10000000.000000000        10000000.000000000     
 H      10000000.000000000        10000000.000000000        10000000.000000000     
 M      10000000.000000000        10000000.000000000        10000000.000000000     
          16
                95000
 O     0.86974531545547507        1.4054285753095996      -0.58908837124033653     
 H     0.23794105446700087       0.81526026318977074      -0.97059818653531238     
 C     0.59641327528095189        2.7692114886735339      -0.92118137181500970     
 C      1.1046207994475026        3.7541691311554928       0.14801625018776576     
 O     -1.0141730160599991      -0.73001315340820838       -1.0742799294126826     
 H    -0.87418174397657822      -0.90887433421073638      -0.15698165636172234     
 C     -1.2452392111891868       -1.9940946166000799       -1.7016605697604064     
 C     -2.2362455751145944       -1.9077638212587544       -2.8772682340919573     
 O     0.14442770060441035      -0.67541542190133441        1.6633683006529054     
 H     0.37881710261285662       0.12040530728813792        1.1859137842637892     
 H     0.89597634590666075      -0.84455287059142847        2.2315223265948134     
 M     0.27063966587411414      -0.59519240114661898        1.6749789321528397     
 O      10000000.000000000        10000000.000000000        10000000.000000000     
 H      10000000.000000000        10000000.000000000        10000000.000000000     
 H      10000000.000000000        10000000.000000000        10000000.000000000     
 M      10000000.000000000        10000000.000000000        10000000.000000000     
          16
               100000
 O      1.4716127299506070       0.24034595188550156       0.59756278442159783     
 H      1.0885098483742013      -0.62009533407160689       0.67436106271156859     
 C      1.6908114065764721       0.65480908621037770        1.9485151338592459     
 C      1.3323197216732297        2.1231911075454377        2.2433675567341425     
 O     -1.6474914888574403       0.30384767772301302       0.22128647282852398     
 H     -1.3672268283139601       0.81724194527532745      -0.52094195972767920     
 C     -2.9976799866171859       -6.2581825614358877E-002  -7.4721026402926327E-002
 C     -3.5649902383555627      -0.78917212178777163        1.1589019385985466     
 O    -0.10744200490512412       -1.9160470196179062       0.72950678969459659     
 H    -0.81750342654834185       -1.3103283592829484       0.51702262083313144     
 H    -0.33584931305870214       -2.7241778200721001       0.27017406612833383     
 M    -0.22757732482170923       -1.9419582156299953       0.64350612208170332     
 O     0.28332076381173010        1.3718533900092780       -1.5483560469447184     
 H     0.73718670050925539        1.0881399383670214      -0.75479179065337121     
 H     0.65092037443491790        2.2347176928910244       -1.7395825123763871     
 M     0.38847826474238900        1.4459916863477247       -1.4712495425885663     
          16
               100001
 O      1.4716127299506070       0.24034595188550156       0.59756278442159783     
 H      1.0885098483742013      -0.62009533407160689       0.67436106271156859     
 C      1.6908114065764721       0.65480908621037770        1.9485151338592459     
 C      1.3323197216732297        2.1231911075454377        2.2433675567341425     
 O     -1.6474914888574403       0.30384767772301302       0.22128647282852398     
 H     -1.3672268283139601       0.81724194527532745      -0.52094195972767920     
 C     -2.9976799866171859       -6.2581825614358877E-002  -7.4721026402926327E-002
 C     -3.5649902383555627      -0.78917212178777163        1.1589019385985466     
 O    -0.10744200490512412       -1.9160470196179062       0.72950678969459659     
 H    -0.81750342654834185       -1.3103283592829484       0.51702262083313144     
 H    -0.33584931305870214       -2.7241778200721001       0.27017406612833383     
 M    -0.22757732482170923       -1.9419582156299953       0.64350612208170332     
 O     0.28332076381173010        1.3718533900092780       -1.5483560469447184     
 H     0.73718670050925539        1.0881399383670214      -0.75479179065337121     
 H     0.65092037443491790        2.2347176928910244       -1.7395825123763871     
 M     0.38847826474238900        1.4459916863477247       -1.4712495425885663     
