          16
           0
 O      25.404839635937208       -10.239603173367609       0.19094147737844114     
 H      25.793930522861704       -9.9066153500722685       0.98514069120916570     
 C      24.083896688806963       -9.7031954856267326       0.30174094921538142     
 C      23.372720707901109       -9.7259469445948206       -1.0640229744908432     
 O     -24.595160364062792       -10.239603173367609       0.19094147737844114     
 H     -24.206069477138300       -9.9066153500722685       0.98514069120916570     
 C     -25.916103311193041       -9.7031954856267326       0.30174094921538142     
 C     -26.627279292098891       -9.7259469445948206       -1.0640229744908432     
 O      25.404839635937208        9.7603968266323911       0.19094147737844114     
 H      25.681195743397268        9.4506536316102832      -0.67156550520649116     
 H      24.884916896689276        10.543338548297189        9.5180894464411692E-003
 M      25.373660168469257        9.8209719471215955        5.7305795069463872E-002
 O     -24.595160364062792        9.7603968266323911       0.19094147737844114     
 H     -24.318804256602732        9.4506536316102832      -0.67156550520649116     
 H     -25.115083103310724        10.543338548297189        9.5180894464411692E-003
 M     -24.626339831530743        9.8209719471215955        5.7305795069463872E-002
          16
                    0
 O      1.3777000631609440       0.59372992734932950       0.11288291494275882     
 H     0.50404047393436713       0.26765575714733814       -4.0151583388762901E-002
 C      1.9046782036452896       -3.8125008355905265E-002   1.2824783063823020     
 C      3.1364891475603827       0.78070956894725896        1.7111410333178014     
 O     -1.3777000631609440      -0.59372992734932950      -0.11288291494275882     
 H     -2.0997106082226082      -0.18102343045688940      -0.56165804821381471     
 C     -2.0423083054305380       -1.4812661623531085       0.79015380405752467     
 C     -2.2036522209912732      -0.79468371006271354        2.1591580688858016     
 O      10000000.000000000        10000000.000000000        10000000.000000000     
 H      10000000.000000000        10000000.000000000        10000000.000000000     
 H      10000000.000000000        10000000.000000000        10000000.000000000     
 M      10000000.000000000        10000000.000000000        10000000.000000000     
 O      10000000.000000000        10000000.000000000        10000000.000000000     
 H      10000000.000000000        10000000.000000000        10000000.000000000     
 H      10000000.000000000        10000000.000000000        10000000.000000000     
 M      10000000.000000000        10000000.000000000        10000000.000000000     
          16
                 5000
 O     -1.3711942171199922      -0.34815414689057889       0.40782779795594593     
 H    -0.66039594524062295       -2.5148388065332483E-003 -0.11017247752707249     
 C     -1.6056052812730783       -1.6898788592792044       -2.7747969469544387E-002
 C     -2.6271331013830412       -1.6944910300511538       -1.1801626694027618     
 O      1.3711942171199922       0.34815414689057889      -0.40782779795594593     
 H      1.5789339971600924       0.20309052387048609       0.50257086695145858     
 C      2.4133071285388610        1.2439934102071817      -0.80326767221552586     
 C      2.4806020577628018        1.3280688994653502       -2.3394977020635110     
 O      10000000.000000000        10000000.000000000        10000000.000000000     
 H      10000000.000000000        10000000.000000000        10000000.000000000     
 H      10000000.000000000        10000000.000000000        10000000.000000000     
 M      10000000.000000000        10000000.000000000        10000000.000000000     
 O      10000000.000000000        10000000.000000000        10000000.000000000     
 H      10000000.000000000        10000000.000000000        10000000.000000000     
 H      10000000.000000000        10000000.000000000        10000000.000000000     
 M      10000000.000000000        10000000.000000000        10000000.000000000     
          16
                10000
 O    -0.26760876951630053      -0.51978236531711985       -1.0963424022029358     
 H    -0.18967843248080385        2.1663491888165964E-002 -0.32576583476478049     
 C     -1.6636960081237646      -0.82656956481546828       -1.1378398288861149     
 C     -1.9793759843149701       -1.4001766723211517       -2.5317268540251519     
 O     0.26760876951632895       0.51978236531711985        1.0963424022029358     
 H     0.80990858691109224      -0.15764924267253022        1.4705379721261238     
 C    -0.55118805036238427       0.97893497626333215        2.1750688029264040     
 C     -1.6412494108010662        1.7868610658894717        1.4466309784142481     
 O      10000000.000000000        10000000.000000000        10000000.000000000     
 H      10000000.000000000        10000000.000000000        10000000.000000000     
 H      10000000.000000000        10000000.000000000        10000000.000000000     
 M      10000000.000000000        10000000.000000000        10000000.000000000     
 O      10000000.000000000        10000000.000000000        10000000.000000000     
 H      10000000.000000000        10000000.000000000        10000000.000000000     
 H      10000000.000000000        10000000.000000000        10000000.000000000     
 M      10000000.000000000        10000000.000000000        10000000.000000000     
          16
                15000
 O      1.2066894263604695        1.0774959557460519      -0.49431451509190083     
 H      1.0411781107543163       0.93679883160648103       0.42537854439325429     
 C      2.6131066349100252       0.87904748587720860      -0.66017240698249680     
 C      3.0871747296127126        1.0459667854084174       -2.1158500461007748     
 O      10000000.000000000        10000000.000000000        10000000.000000000     
 H      10000000.000000000        10000000.000000000        10000000.000000000     
 C      10000000.000000000        10000000.000000000        10000000.000000000     
 C      10000000.000000000        10000000.000000000        10000000.000000000     
 O    -0.35994315791450049      -0.22997358475548424        1.5057624448684237     
 H    -0.55753317245554967      -0.41471436217381097       0.58757898209393034     
 H     -1.2157414528349477       -9.6753636229109929E-002   1.9133082260088941     
 M    -0.49478957051775296      -0.23656887244478497        1.4403946608429692     
 O    -0.84674626844591216      -0.84752237099056771       -1.0114479297765229     
 H    -0.23759097097564563      -0.11596515418389686       -1.1113764147185066     
 H    -0.86048516551801413       -1.2675654317266734       -1.8714519471124618     
 M    -0.77052578557481866      -0.80764480063600530       -1.1343308715283911     
          16
                20000
 O    -0.42013096005211992      -0.61785387672006209        1.0493782559900637     
 H     -1.0756646323704331       -1.0407137574484295        1.5827544138067537     
 C     0.39310824659230548        9.0596765016243808E-002   1.9883349541395319     
 C    -0.58672175420144868       0.62610941057999980        3.0488816886052632     
 O      10000000.000000000        10000000.000000000        10000000.000000000     
 H      10000000.000000000        10000000.000000000        10000000.000000000     
 C      10000000.000000000        10000000.000000000        10000000.000000000     
 C      10000000.000000000        10000000.000000000        10000000.000000000     
 O     0.42013096005211992       0.61785387672011893       -1.0493782559900069     
 H     0.41773196727581308       -9.7825291937340353E-002  -1.6850113359852230     
 H      5.7151455300640919E-002  0.23198129148005364      -0.25214550008382730     
 M     0.37335810412406545       0.47684196214402164       -1.0286915477942671     
 O      10000000.000000000        10000000.000000000        10000000.000000000     
 H      10000000.000000000        10000000.000000000        10000000.000000000     
 H      10000000.000000000        10000000.000000000        10000000.000000000     
 M      10000000.000000000        10000000.000000000        10000000.000000000     
          16
                25000
 O     0.92707836160980150      -0.94766056026003298       0.89139070441200374     
 H     0.96733186314230579      -0.87781142399347800       -5.0164261470058591E-002
 C      2.2259256370780633      -0.71149168342856228        1.4410451564313576     
 C      3.1869372201491046       -1.8511164075526949        1.0546357551893379     
 O      10000000.000000000        10000000.000000000        10000000.000000000     
 H      10000000.000000000        10000000.000000000        10000000.000000000     
 C      10000000.000000000        10000000.000000000        10000000.000000000     
 C      10000000.000000000        10000000.000000000        10000000.000000000     
 O     -1.1080552703269007       0.84970760170051562       0.66285779540936574     
 H    -0.62721563958839965        2.6749818146413418E-002  0.75098030104567215     
 H     -1.5650166992313075       0.95125187335963801        1.4977870459366613     
 M     -1.1049985724057194       0.75735796841848924       0.78101955669654899     
 O     0.18097690871709915        9.7952958559517356E-002  -1.5542484998213126     
 H     -7.1346283616833261E-003  0.50377082427723963       -2.4005095408028865     
 H    -0.45546027868297756       0.48732656194084711      -0.95460882177832218     
 M      7.5424723911964975E-002  0.19974706048560620       -1.5858190097313241     
          16
                30000
 O     0.83579298050826267       0.75097073507140522      -0.95285990049580960     
 H     0.88315690124786173       0.86725545773481372       -1.6238567038499241E-002
 C      2.0944101761196876        1.1083396283843854       -1.5299822696719048     
 C      3.2166262772150702       0.55519702410731497      -0.63206006715336116     
 O     0.78766994220108799       -3.2442738536133220E-002   1.9637967291355380     
 H     0.92358644948004809      -0.96149410807919367        1.8569545286745779     
 C    -0.41954990515860047       0.13537478966372873        2.7116988065292844     
 C     -1.0019602338303670        1.4958186295871201        2.2855641242151705     
 O     -1.6234629227093578      -0.71852799653532884       -1.0109368286395011     
 H     -1.1711118831447394        5.5632751620692034E-002 -0.67584652287098379     
 H     -1.0660746317799905       -1.0328118389970768       -1.7228187005125619     
 M     -1.4942041060338269      -0.65965820425179800       -1.0591706950425532     
 O      10000000.000000000        10000000.000000000        10000000.000000000     
 H      10000000.000000000        10000000.000000000        10000000.000000000     
 H      10000000.000000000        10000000.000000000        10000000.000000000     
 M      10000000.000000000        10000000.000000000        10000000.000000000     
          16
                35000
 O    -0.75754367055593619       -1.1546174903087376       0.30695824774159064     
 H    -0.27674706350025247      -0.42445640897290104       -5.1823605124582173E-002
 C     -1.7002975985982758       -1.5287605825445780      -0.70107547078839616     
 C     -2.4436721705668454      -0.31604799271212869       -1.2912639323939175     
 O     0.75754367055593619        1.1546174903086239      -0.30695824774159064     
 H      1.0295363997277285        1.3913754154928029       0.56653510663500128     
 C      1.1636507148168462        2.2058166979065845       -1.1872748354230680     
 C     0.99470984685498820        1.6397364871986611       -2.6094605399556485     
 O      10000000.000000000        10000000.000000000        10000000.000000000     
 H      10000000.000000000        10000000.000000000        10000000.000000000     
 H      10000000.000000000        10000000.000000000        10000000.000000000     
 M      10000000.000000000        10000000.000000000        10000000.000000000     
 O      10000000.000000000        10000000.000000000        10000000.000000000     
 H      10000000.000000000        10000000.000000000        10000000.000000000     
 H      10000000.000000000        10000000.000000000        10000000.000000000     
 M      10000000.000000000        10000000.000000000        10000000.000000000     
          16
                40000
 O    -0.60352862106833705        3.6037550745959379E-002   1.3198603852855513     
 H     -1.0782297700570198       0.45357517161903615       0.61747434164260540     
 C     -1.4816624212810607      -0.56241382250516381        2.2767496070756579     
 C    -0.50469254618048609       -1.1742282594160542        3.2979317445677907     
 O    -0.79490958803817691       0.78976260529009323       -1.1395093666828870     
 H      7.2993990614012461E-002  0.41596113106800203       -1.1458996743573380     
 C    -0.66947927672423102        1.9769969236891711       -1.9266827340035206     
 C    -0.75474737462390484        3.2782965974395211       -1.1075682666809143     
 O      1.3984382091065157      -0.82580015603616630      -0.18035101860266423     
 H     0.75626145391534294      -0.58980093759362262       0.48908547874975739     
 H      2.0772245789309345       -1.3037504751343931       0.29614074062681084     
 M      1.4031246814704952      -0.85677281602806943       -3.3658376286098246E-002
 O      10000000.000000000        10000000.000000000        10000000.000000000     
 H      10000000.000000000        10000000.000000000        10000000.000000000     
 H      10000000.000000000        10000000.000000000        10000000.000000000     
 M      10000000.000000000        10000000.000000000        10000000.000000000     
          16
                45000
 O     0.83191700857281603       -1.0398642355773973      -0.97209159946203272     
 H     -5.9391570141173133E-002  -1.2157615846490444      -0.71198750472217398     
 C      1.3736045248673747       -2.2994014944423498       -1.3783434034232869     
 C     0.69756684617334486       -3.3094803162617836      -0.43266172828214167     
 O    -0.51335878676857760       0.59076134879080655        1.4140706857185705     
 H     0.18950332658442903       0.91111729509873385       0.86966098955383586     
 C      9.9075047165854357E-002  -4.8862077453122765E-002   2.5368826341999693     
 C    -0.84391962273483045      -0.82579126505549993        3.4742950781062518     
 O     -1.7696745651504386       -1.0952266807587421      -0.16565091390543785     
 H     -2.6955022252657841      -0.85966830434028907      -0.22554444498200610     
 H     -1.4155838886297261      -0.50874750655816570       0.50285025365485581     
 M     -1.8428637969814758      -0.98999595650388983       -8.7741793664463330E-002
 O      1.4511163433460865        1.5443295675453328      -0.27632817235098628     
 H      1.4443205660141984       0.66684904899238973      -0.65870703810014675     
 H      1.7710583909514810        2.1099166155283910      -0.97916543468602413     
 M      1.4912028440106440        1.5044034403588284      -0.41524892973598071     
          16
                50000
 O    -0.92177741802538549       0.54491452684544583       -1.1921342166732529     
 H    -0.31695628372926876       0.89721825516733134      -0.55723384770283246     
 C     -1.9836342561696370        1.5025606138079866       -1.2086879900097074     
 C     -1.5305217374004769        2.8359866573636054       -1.8317963527383654     
 O      1.2666204601461004       0.89971479216865191       0.58820784774252388     
 H     0.94723017866209602       0.19179791849001049        1.1266022645548901     
 C      2.6399694547856711       0.51039029194271279       0.50312569658126449     
 C      2.9246858984537312      -0.10539486160985234      -0.87938838702484645     
 O    -0.34484304212071493       -1.4446293190140977       0.60392636893084273     
 H    -0.48508045180597037       -2.3366416111545050       0.28631122509068518     
 H    -0.77284060736991478      -0.88813665031227629       -4.6739316210960169E-002
 M    -0.41758397459238950       -1.4875798788143584       0.47997474063902246     
 O      10000000.000000000        10000000.000000000        10000000.000000000     
 H      10000000.000000000        10000000.000000000        10000000.000000000     
 H      10000000.000000000        10000000.000000000        10000000.000000000     
 M      10000000.000000000        10000000.000000000        10000000.000000000     
          16
                55000
 O      10000000.000000000        10000000.000000000        10000000.000000000     
 H      10000000.000000000        10000000.000000000        10000000.000000000     
 C      10000000.000000000        10000000.000000000        10000000.000000000     
 C      10000000.000000000        10000000.000000000        10000000.000000000     
 O      10000000.000000000        10000000.000000000        10000000.000000000     
 H      10000000.000000000        10000000.000000000        10000000.000000000     
 C      10000000.000000000        10000000.000000000        10000000.000000000     
 C      10000000.000000000        10000000.000000000        10000000.000000000     
 O    -0.93391898596152600      -0.68420629487894757      -0.85672255986571599     
 H    -0.15189569783439083      -0.28400307544541192      -0.47657942895034466     
 H    -0.87647312116200737       -1.6067341043370789      -0.60797720132939048     
 M    -0.82645680630147922      -0.75107014418028939      -0.77621724575953976     
 O     0.93391898596155443       0.68420629487894757       0.85672255986571599     
 H     0.15479408116513582        1.2085200223900756        1.0419017646112252     
 H      1.6308817933169166        1.3274382407115581       0.72738830677280930     
 M     0.92340124621446762       0.83366622735252349       0.86387138743873493     
          16
                60000
 O      4.3873134750839426E-002  0.38204782410483062        1.3935780309672054     
 H     -3.7798141399747465E-002 -0.14254397842006483       0.61181192568017195     
 C     -6.2209886069155118E-002 -0.43198904087884671        2.5644710129007535     
 C      1.2616743227486893       -1.1250485141330842        2.9367601051063730     
 O     -4.3873134750839426E-002 -0.38204782410483062       -1.3935780309670918     
 H     0.48342785569278135       0.34546850014754682       -1.6863213714951826     
 C     -6.5514191197905802E-002  -1.4336628748326348       -2.3623594561393020     
 C    -0.14241537718024233       -2.7918178242970555       -1.6404859624856272     
 O      10000000.000000000        10000000.000000000        10000000.000000000     
 H      10000000.000000000        10000000.000000000        10000000.000000000     
 H      10000000.000000000        10000000.000000000        10000000.000000000     
 M      10000000.000000000        10000000.000000000        10000000.000000000     
 O      10000000.000000000        10000000.000000000        10000000.000000000     
 H      10000000.000000000        10000000.000000000        10000000.000000000     
 H      10000000.000000000        10000000.000000000        10000000.000000000     
 M      10000000.000000000        10000000.000000000        10000000.000000000     
          16
                65000
 O      0.0000000000000000        0.0000000000000000        0.0000000000000000     
 H     0.62378288299198914      -0.68434780276943741       0.18864781931114294     
 C    -0.62859177825357904      -0.39307099950201518       -1.2228113369046127     
 C     -2.0133099609236780       0.28083931706758847       -1.2234745139975303     
 O      10000000.000000000        10000000.000000000        10000000.000000000     
 H      10000000.000000000        10000000.000000000        10000000.000000000     
 C      10000000.000000000        10000000.000000000        10000000.000000000     
 C      10000000.000000000        10000000.000000000        10000000.000000000     
 O      10000000.000000000        10000000.000000000        10000000.000000000     
 H      10000000.000000000        10000000.000000000        10000000.000000000     
 H      10000000.000000000        10000000.000000000        10000000.000000000     
 M      10000000.000000000        10000000.000000000        10000000.000000000     
 O      10000000.000000000        10000000.000000000        10000000.000000000     
 H      10000000.000000000        10000000.000000000        10000000.000000000     
 H      10000000.000000000        10000000.000000000        10000000.000000000     
 M      10000000.000000000        10000000.000000000        10000000.000000000     
          16
                70000
 O     0.86483540841285134      -0.85298933192586901      -0.45926478907233559     
 H     0.15482641946605469      -0.23358775981930080      -0.38678080403673221     
 C     0.76603746839462161       -1.3811728514870936       -1.7844670893691728     
 C    -0.44861340990776455       -2.2913502378367525       -2.0448521296785884     
 O    -0.86483540841285134       0.85298933192586901       0.45926478907227875     
 H    -0.33214081345217750       0.97549572641332816        1.2301432826167229     
 C     -2.2307250129180787       0.76130057751336722       0.87259124675290423     
 C     -3.2008069777362067        1.1299049706360051      -0.26524520147029307     
 O      10000000.000000000        10000000.000000000        10000000.000000000     
 H      10000000.000000000        10000000.000000000        10000000.000000000     
 H      10000000.000000000        10000000.000000000        10000000.000000000     
 M      10000000.000000000        10000000.000000000        10000000.000000000     
 O      10000000.000000000        10000000.000000000        10000000.000000000     
 H      10000000.000000000        10000000.000000000        10000000.000000000     
 H      10000000.000000000        10000000.000000000        10000000.000000000     
 M      10000000.000000000        10000000.000000000        10000000.000000000     
          16
                75000
 O      1.5484228933145516      -0.13694624415103362        1.3544436528147230     
 H      1.1546352096332555       0.66832081057788173        1.0552760898183919     
 C      2.0439386851593611       0.19271479036842720        2.6547081268168427     
 C      2.9391275033597424      -0.88305635328606513        3.2973226506562696     
 O    -0.17542919360502651        1.6742836386096656       0.42413427027724993     
 H    -0.52946479817197201        1.1877883476972784      -0.30456739887057438     
 C    -0.65776375540244203        3.0200757341413009       0.39101318786418915     
 C     -1.2628856718056056        3.2411733955705131        1.7897781039237657     
 O    -0.13125024600699930       -1.7850634439994906      -0.16231908034342268     
 H     0.34080925579078780       -2.4486833975743139      -0.66531035658999826     
 H     0.53865226425759261       -1.3796887849498489       0.38825684769994950     
 M      1.4934669158833458E-002  -1.8181219573945100      -0.15622767080998301     
 O     -1.2417434537024974       0.24772604954085864       -1.6162588427484934     
 H    -0.97452648286940757      -0.44633228324840957       -1.0136727815213362     
 H     -2.0760694728376734       -5.4267689162770694E-002  -1.9753294703095321     
 M     -1.3143402539812712       0.12021936715194670       -1.5850859292582413     
          16
                80000
 O     -1.3004421615049750       0.41574568386380406      -0.41739724986979354     
 H    -0.41388188839471240       0.18929176645252710      -0.18127333021789127     
 C     -1.4609639511617729       0.35384412159152134       -1.8370102082615176     
 C    -0.68290501166791273        1.5044878150247314       -2.5020240257389901     
 O      1.3004421615049182      -0.41574568386380406       0.41739724986985038     
 H      2.1447622673511546       -6.4030963727987000E-002  0.17981502304377273     
 C      1.5052835432614984       -1.1527747372119279        1.6255893632526863     
 C     0.39729695494128237       -2.1645855584770857        1.9722946878054586     
 O      10000000.000000000        10000000.000000000        10000000.000000000     
 H      10000000.000000000        10000000.000000000        10000000.000000000     
 H      10000000.000000000        10000000.000000000        10000000.000000000     
 M      10000000.000000000        10000000.000000000        10000000.000000000     
 O      10000000.000000000        10000000.000000000        10000000.000000000     
 H      10000000.000000000        10000000.000000000        10000000.000000000     
 H      10000000.000000000        10000000.000000000        10000000.000000000     
 M      10000000.000000000        10000000.000000000        10000000.000000000     
          16
                85000
 O     -1.9386649216277192       0.48506559251359249       0.59776577212164739     
 H     -1.7036745658193695       0.38247891032972348      -0.31178384462032227     
 C     -3.2055861483840431        1.1471929015683600       0.56037550870502173     
 C     -3.7952343199678467        1.1372214987037523        1.9829842408842637     
 O     0.31513709807813939      -0.54497759081903041        1.4565898129153538     
 H    -0.44317927192548723       -4.4354605684020498E-003   1.2959800734575424     
 C    -0.13812897270997837       -1.8925554776075160        1.6098337625862769     
 C     -1.0635995961067692       -1.8676358712042429        2.8404771465308158     
 O      2.2477713128292294       0.10656472421851504      -0.35065810639144956     
 H      3.1046180638405190       -4.4485797825132067E-002   4.8377261804375848E-002
 H      1.6201553249118206      -0.11883019235483516       0.33602023409491721     
 M      2.2771156161435329        5.8375166309474480E-002 -0.21167365268649974     
 O    -0.62424348927959272       -4.6652725912849746E-002  -1.7036974786453811     
 H      3.0238041395875825E-002  0.57393838798316210       -1.3831472714097117     
 H    -0.13914111648665539      -0.86163702525948338       -1.8329573708326166     
 M    -0.47836300070508742       -7.1537398979330646E-002  -1.6792100104275391     
          16
                90000
 O      1.1431783058350220      -0.72001490456369766      -0.77617228361557977     
 H     0.33762931377344785       -1.2140386072270530      -0.76866211747474722     
 C      1.8963866842540256       -1.2461271694780862       -1.8719747399854612     
 C      1.3925085510894633      -0.63285208338413668       -3.1916718626977172     
 O     -1.5901835257656671      -0.66942555930307890       -3.8496161901491632E-002
 H     -1.2543565449309995       0.13245371400125805       0.33195608871702120     
 C     -2.2867692062549736       -1.4205398096993918       0.95924918265734505     
 C     -2.6574629312482898       -2.7966368297753661       0.37568842867489138     
 O     0.44700521993070197        1.3894404638667766       0.81466844551709983     
 H     0.74136692050944930       0.61456633188538490       0.33596905255816978     
 H     0.91076982761956060        2.1175473632421813       0.40112936424844747     
 M     0.54405453408412541        1.3834536938530277       0.70045115607621256     
 O      10000000.000000000        10000000.000000000        10000000.000000000     
 H      10000000.000000000        10000000.000000000        10000000.000000000     
 H      10000000.000000000        10000000.000000000        10000000.000000000     
 M      10000000.000000000        10000000.000000000        10000000.000000000     
          16
                95000
 O      10000000.000000000        10000000.000000000        10000000.000000000     
 H      10000000.000000000        10000000.000000000        10000000.000000000     
 C      10000000.000000000        10000000.000000000        10000000.000000000     
 C      10000000.000000000        10000000.000000000        10000000.000000000     
 O      10000000.000000000        10000000.000000000        10000000.000000000     
 H      10000000.000000000        10000000.000000000        10000000.000000000     
 C      10000000.000000000        10000000.000000000        10000000.000000000     
 C      10000000.000000000        10000000.000000000        10000000.000000000     
 O     0.69658338665720976       0.12368377309923062        1.4922610597433419     
 H     0.64965954593640163       0.44377284801458927       0.59138760731370610     
 H     0.70838220615462433       0.91658176811307612        2.0283630998073079     
 M     0.69208696016261229       0.26615954609343362        1.4455659180416376     
 O    -0.69658338665720976      -0.12368377309928746       -1.4922610597433561     
 H    -0.72636384517477381      -0.88404430722340521      -0.91157455013795641     
 H     -1.6111108579483471       0.14316306110561072       -1.5853422679857232     
 M    -0.81746619462444414      -0.18685948086715598       -1.4298416982756521     
          16
               100000
 O      10000000.000000000        10000000.000000000        10000000.000000000     
 H      10000000.000000000        10000000.000000000        10000000.000000000     
 C      10000000.000000000        10000000.000000000        10000000.000000000     
 C      10000000.000000000        10000000.000000000        10000000.000000000     
 O      10000000.000000000        10000000.000000000        10000000.000000000     
 H      10000000.000000000        10000000.000000000        10000000.000000000     
 C      10000000.000000000        10000000.000000000        10000000.000000000     
 C      10000000.000000000        10000000.000000000        10000000.000000000     
 O    -0.16784353841916300       -2.5788087054934294E-004   1.3103624829906408     
 H      8.2087519951642207E-002  0.15539112128442412       0.39957178574432817     
 H     0.22789967320062487       0.72415384151031503        1.7949724363895996     
 M     -8.5189441884210737E-002  0.11240050968706328        1.2558062059638928     
 O     0.16784353841916300        2.5788087054934294E-004  -1.3103624829906551     
 H     0.21937101601190534       0.23965328214137571       -2.2357092292993457     
 H     0.19504258329953927      -0.95655301507804325       -1.3081350739729061     
 M     0.17792148312008749       -9.1579957972555803E-002  -1.4285328954774172     
          16
               100001
 O      10000000.000000000        10000000.000000000        10000000.000000000     
 H      10000000.000000000        10000000.000000000        10000000.000000000     
 C      10000000.000000000        10000000.000000000        10000000.000000000     
 C      10000000.000000000        10000000.000000000        10000000.000000000     
 O      10000000.000000000        10000000.000000000        10000000.000000000     
 H      10000000.000000000        10000000.000000000        10000000.000000000     
 C      10000000.000000000        10000000.000000000        10000000.000000000     
 C      10000000.000000000        10000000.000000000        10000000.000000000     
 O    -0.16784353841916300       -2.5788087054934294E-004   1.3103624829906408     
 H      8.2087519951642207E-002  0.15539112128442412       0.39957178574432817     
 H     0.22789967320062487       0.72415384151031503        1.7949724363895996     
 M     -8.5189441884210737E-002  0.11240050968706328        1.2558062059638928     
 O     0.16784353841916300        2.5788087054934294E-004  -1.3103624829906551     
 H     0.21937101601190534       0.23965328214137571       -2.2357092292993457     
 H     0.19504258329953927      -0.95655301507804325       -1.3081350739729061     
 M     0.17792148312008749       -9.1579957972555803E-002  -1.4285328954774172     
