          12

 O      14.829049634310897       -31.780097514545989       -14.396088684971467     
 H      15.001337506350424       -31.077521627710965       -15.004142146754289     
 C      15.899314559949422       -31.938703444226533       -13.461060798746608     
 C      15.702091419565182       -33.275692664778859       -12.722709353279173     
 O      14.203257256788140       -29.408502972394977       -15.959603969930070     
 H      13.281624538514318       -29.208615660212502       -15.795683150519501     
 H      14.417536255511905       -28.918647626711536       -16.753554907337829     
 M      14.112707446555993       -29.320207590533951       -16.040255426265251     
 O      13.088455335548360       -33.893587954173071       -14.449473623753724     
 H      13.555542376605583       -34.584856190949061       -13.980208495173139     
 H      13.626930700478486       -33.112228349330692       -14.323961515639944     
 M      13.217179455492976       -33.882055172119401       -14.373334961546945     
