          40

 O      199.12522117278178       -346.39195161236836        554.68746848785725     
 H      199.72563311377601       -346.46034636307820        553.94513466861918     
 H      199.11017445060989       -345.45848063545844        554.89874406954414     
 M      199.20015498314598       -346.28121141838432        554.61948662630300     
 O      199.18120771469643       -343.74812400408200        555.53840077155064     
 H      198.31505841077893       -343.76696133454698        555.94541720648931     
 H      199.76453623068065       -343.43527910076227        556.22983966900006     
 M      199.14500324164760       -343.71048748759205        555.67901630681422     
 O      198.78485274472126       -346.40144789000482        558.47152838354327     
 H      199.67674374196378       -346.55907375083149        558.16182469121600     
 H      198.49914270355822       -347.24584813224260        558.82022573553650     
 M      198.86245122059202       -346.52971932051173        558.47652004243321     
 O      196.44355396981967       -343.61476997445260        559.39077411259075     
 H      195.63091101415361       -344.00035818575248        559.71813476678267     
 H      196.45618953658547       -343.83618623367943        558.45962051484184     
 M      196.34114337205872       -343.69247387011160        559.31348133113352     
 O      196.95905008178954       -344.87360150177170        556.96175046174164     
 H      196.40157914808319       -345.58537992246596        556.64737890147455     
 H      197.50559439553501       -345.27682542695453        557.63623665083105     
 M      196.95765134260537       -345.01633525440144        557.00784947896716     
 O      201.19984581253811       -345.76779489685669        557.17755907628259     
 H      201.23956880023891       -344.82538834496984        557.34042041364933     
 H      200.70168040881538       -345.85001787766100        556.36435402713425     
 M      201.14115965223968       -345.65768102175707        557.09430723486116     
 O      199.17038621254136       -344.08166706530005        559.94454125649122     
 H      199.12210252431694       -345.00396104095580        559.69299732807372     
 H      198.26008758318645       -343.82524260930882        560.09230709747533     
 M      199.04767611072154       -344.16690639744587        559.93125640923063     
 O      200.75889610859937       -342.96724040383987        557.86034053917638     
 H      200.85870852207856       -342.01540135747979        557.84385563881040     
 H      200.46445422424495       -343.16229533061880        558.74999743499541     
 M      200.73398118814833       -342.87036290603231        557.97211708930092     
 O      197.17818807578652       -347.97113093512792        555.71681126568888     
 H      196.73286572590709       -348.27282867921025        554.92504216051259     
 H      197.96085296276266       -347.52307458549450        555.39601066991747     
 M      197.22137199052904       -347.95239526782052        555.57438892096047     
 O      197.56412933652166       -348.84074002704858        558.37991982647384     
 H      198.01964651925428       -349.62849221865349        558.08296457587437     
 H      197.36886865693870       -348.35904097302512        557.57613432749952     
 M      197.59744530888599       -348.87991852114925        558.23901173023467     
