           8

 O     -26.240983481292471       -53.119253296300123       -11.483358670634228     
 H     -25.840926981929528       -52.679282306955088       -12.233433444142262     
 H     -25.914852035735628       -54.017955581467049       -11.530308887394249     
 M     -26.148022662980981       -53.177976436698728       -11.585387485390894     
 O     -27.195388447608366       -53.285743511210534       -8.8446052109711335     
 H     -26.989133561278216       -53.011438306024694       -9.7381640597740056     
 H     -27.150219679423230       -52.480054395524490       -8.3297686628850816     
 M     -27.163203186436220       -53.147491208148850       -8.8930862346972752     
