           8

 O     -55.438737179440920       -106.76787946641815        132.36501546833068     
 H     -56.247339432868074       -106.77497698181389        132.85403184947907     
 C     -55.552140028570719       -106.02329334112189        131.14943688352690     
 C     -54.241273740189548       -105.21767247771389        131.08459400861130     
 O     -53.595204610403265       -108.79927818834726        132.21266161216354     
 H     -53.383143082495785       -108.72551741384345        131.28216653075563     
 H     -54.141896611845681       -108.03512965037346        132.39551868057629     
 M     -53.638041348288375       -108.69201568708402        132.11695492634766     
